** Generated for: hspiceD
** Generated on: Jan 15 22:05:11 2023
** Design library name: testRohm_n
** Design cell name: BNN_IRIS_A_1
** Design view name: schematic


.TEMP 25.0
.OPTION
+    ARTIST=2
+    INGOLD=2
+    PARHIER=LOCAL
+    PSF=2

** Library name: testRohm_n
** Cell name: INVA_iris_1
** View name: schematic
.subckt INVA_iris_1 out outb vb vdbl vin
m0 outb net77 0 0 N L=180e-9 W=2e-6
m2 out outb 0 0 N L=180e-9 W=2e-6
m1 outb net77 net78 net78 P L=180e-9 W=5e-6
m3 out outb net78 net78 P L=180e-9 W=5e-6
m23 net77 vdbl net76 0 N L=200e-9 W=40e-6
m22 net75 vin net76 0 N L=200e-9 W=40e-6
m24 net76 vb 0 0 N L=200e-9 W=40e-6
r0 vin 0 112e3
m20 net77 net75 net78 net78 P L=200e-9 W=40e-6
m21 net78 net75 net75 net78 P L=200e-9 W=40e-6
v0 net78 0 DC=1.8
.ends INVA_iris_1
** End of subcircuit definition.

** Library name: testRohm_n
** Cell name: cellP
** View name: schematic
.subckt cellP vbl wl11 wl11b
v0 net30 0 DC=1.8
m0 net30 wl11 net28 net30 P L=180e-9 W=5e-6
m1 net29 wl11b net30 net30 P L=180e-9 W=5e-6
r0 net28 vbl R 10e6
r1 net29 vbl R 900e3
.ends cellP
** End of subcircuit definition.

** Library name: testRohm_n
** Cell name: cellN
** View name: schematic
.subckt cellN vbl wl11 wl11b
v0 net30 0 DC=1.8
m0 net30 wl11 net28 net30 P L=180e-9 W=5e-6
m1 net29 wl11b net30 net30 P L=180e-9 W=5e-6
r0 net28 vbl R 900e3
r1 net29 vbl R 10e6
.ends cellN
** End of subcircuit definition.

xl1i1 bl1_1 wl1_1 wl1_1b cellN
xl1i2 bl1_2 wl1_1 wl1_1b cellP
xl1i3 bl1_3 wl1_1 wl1_1b cellN
xl1i4 bl1_4 wl1_1 wl1_1b cellP
xl1i5 bl1_5 wl1_1 wl1_1b cellP
xl1i6 bl1_6 wl1_1 wl1_1b cellP
xl1i7 bl1_7 wl1_1 wl1_1b cellP
xl1i8 bl1_8 wl1_1 wl1_1b cellP
xl1i9 bl1_9 wl1_1 wl1_1b cellN
xl1i10 bl1_10 wl1_1 wl1_1b cellN
xl1i11 bl1_11 wl1_1 wl1_1b cellN
xl1i12 bl1_12 wl1_1 wl1_1b cellP
xl1i13 bl1_13 wl1_1 wl1_1b cellP
xl1i14 bl1_14 wl1_1 wl1_1b cellN
xl1i15 bl1_15 wl1_1 wl1_1b cellP
xl1i16 bl1_16 wl1_1 wl1_1b cellP
xl1i17 bl1_17 wl1_1 wl1_1b cellP
xl1i18 bl1_18 wl1_1 wl1_1b cellN
xl1i19 bl1_19 wl1_1 wl1_1b cellN
xl1i20 bl1_20 wl1_1 wl1_1b cellN
xl1i21 bl1_21 wl1_1 wl1_1b cellP
xl1i22 bl1_22 wl1_1 wl1_1b cellP
xl1i23 bl1_23 wl1_1 wl1_1b cellN
xl1i24 bl1_24 wl1_1 wl1_1b cellN
xl1i25 bl1_25 wl1_1 wl1_1b cellN
xl1i26 bl1_26 wl1_1 wl1_1b cellN
xl1i27 bl1_27 wl1_1 wl1_1b cellN
xl1i28 bl1_28 wl1_1 wl1_1b cellP
xl1i29 bl1_29 wl1_1 wl1_1b cellP
xl1i30 bl1_30 wl1_1 wl1_1b cellN
xl1i31 bl1_31 wl1_1 wl1_1b cellP
xl1i32 bl1_32 wl1_1 wl1_1b cellP
xl1i33 bl1_33 wl1_1 wl1_1b cellN
xl1i34 bl1_34 wl1_1 wl1_1b cellN
xl1i35 bl1_35 wl1_1 wl1_1b cellP
xl1i36 bl1_36 wl1_1 wl1_1b cellN
xl1i37 bl1_37 wl1_1 wl1_1b cellN
xl1i38 bl1_38 wl1_1 wl1_1b cellP
xl1i39 bl1_39 wl1_1 wl1_1b cellN
xl1i40 bl1_40 wl1_1 wl1_1b cellP
xl1i41 bl1_41 wl1_1 wl1_1b cellP
xl1i42 bl1_42 wl1_1 wl1_1b cellN
xl1i43 bl1_43 wl1_1 wl1_1b cellN
xl1i44 bl1_44 wl1_1 wl1_1b cellP
xl1i45 bl1_45 wl1_1 wl1_1b cellP
xl1i46 bl1_46 wl1_1 wl1_1b cellN
xl1i47 bl1_47 wl1_1 wl1_1b cellN
xl1i48 bl1_48 wl1_1 wl1_1b cellP
xl1i49 bl1_49 wl1_1 wl1_1b cellP
xl1i50 bl1_50 wl1_1 wl1_1b cellP
xl1i51 bl1_51 wl1_1 wl1_1b cellN
xl1i52 bl1_52 wl1_1 wl1_1b cellN
xl1i53 bl1_53 wl1_1 wl1_1b cellP
xl1i54 bl1_54 wl1_1 wl1_1b cellN
xl1i55 bl1_55 wl1_1 wl1_1b cellP
xl1i56 bl1_56 wl1_1 wl1_1b cellP
xl1i57 bl1_57 wl1_1 wl1_1b cellN
xl1i58 bl1_58 wl1_1 wl1_1b cellN
xl1i59 bl1_59 wl1_1 wl1_1b cellP
xl1i60 bl1_60 wl1_1 wl1_1b cellP
xl1i61 bl1_61 wl1_1 wl1_1b cellP
xl1i62 bl1_62 wl1_1 wl1_1b cellP
xl1i63 bl1_63 wl1_1 wl1_1b cellN
xl1i64 bl1_64 wl1_1 wl1_1b cellN
xl1i65 bl1_65 wl1_1 wl1_1b cellP
xl1i66 bl1_66 wl1_1 wl1_1b cellN
xl1i67 bl1_67 wl1_1 wl1_1b cellN
xl1i68 bl1_68 wl1_1 wl1_1b cellN
xl1i69 bl1_69 wl1_1 wl1_1b cellN
xl1i70 bl1_70 wl1_1 wl1_1b cellN
xl1i71 bl1_71 wl1_1 wl1_1b cellP
xl1i72 bl1_72 wl1_1 wl1_1b cellN
xl1i73 bl1_73 wl1_1 wl1_1b cellN
xl1i74 bl1_74 wl1_1 wl1_1b cellP
xl1i75 bl1_75 wl1_1 wl1_1b cellP
xl1i76 bl1_76 wl1_1 wl1_1b cellP
xl1i77 bl1_77 wl1_1 wl1_1b cellP
xl1i78 bl1_78 wl1_1 wl1_1b cellN
xl1i79 bl1_79 wl1_1 wl1_1b cellP
xl1i80 bl1_80 wl1_1 wl1_1b cellN
xl1i81 bl1_81 wl1_1 wl1_1b cellP
xl1i82 bl1_82 wl1_1 wl1_1b cellN
xl1i83 bl1_83 wl1_1 wl1_1b cellN
xl1i84 bl1_84 wl1_1 wl1_1b cellN
xl1i85 bl1_85 wl1_1 wl1_1b cellP
xl1i86 bl1_86 wl1_1 wl1_1b cellP
xl1i87 bl1_87 wl1_1 wl1_1b cellN
xl1i88 bl1_88 wl1_1 wl1_1b cellN
xl1i89 bl1_89 wl1_1 wl1_1b cellN
xl1i90 bl1_90 wl1_1 wl1_1b cellN
xl1i91 bl1_91 wl1_1 wl1_1b cellP
xl1i92 bl1_92 wl1_1 wl1_1b cellN
xl1i93 bl1_93 wl1_1 wl1_1b cellN
xl1i94 bl1_94 wl1_1 wl1_1b cellP
xl1i95 bl1_95 wl1_1 wl1_1b cellP
xl1i96 bl1_96 wl1_1 wl1_1b cellN
xl1i97 bl1_97 wl1_1 wl1_1b cellN
xl1i98 bl1_98 wl1_1 wl1_1b cellP
xl1i99 bl1_99 wl1_1 wl1_1b cellN
xl1i100 bl1_100 wl1_1 wl1_1b cellP
xl1i101 bl1_1 wl1_2 wl1_2b cellN
xl1i102 bl1_2 wl1_2 wl1_2b cellP
xl1i103 bl1_3 wl1_2 wl1_2b cellN
xl1i104 bl1_4 wl1_2 wl1_2b cellN
xl1i105 bl1_5 wl1_2 wl1_2b cellP
xl1i106 bl1_6 wl1_2 wl1_2b cellP
xl1i107 bl1_7 wl1_2 wl1_2b cellP
xl1i108 bl1_8 wl1_2 wl1_2b cellP
xl1i109 bl1_9 wl1_2 wl1_2b cellP
xl1i110 bl1_10 wl1_2 wl1_2b cellN
xl1i111 bl1_11 wl1_2 wl1_2b cellN
xl1i112 bl1_12 wl1_2 wl1_2b cellP
xl1i113 bl1_13 wl1_2 wl1_2b cellN
xl1i114 bl1_14 wl1_2 wl1_2b cellN
xl1i115 bl1_15 wl1_2 wl1_2b cellP
xl1i116 bl1_16 wl1_2 wl1_2b cellN
xl1i117 bl1_17 wl1_2 wl1_2b cellN
xl1i118 bl1_18 wl1_2 wl1_2b cellP
xl1i119 bl1_19 wl1_2 wl1_2b cellP
xl1i120 bl1_20 wl1_2 wl1_2b cellN
xl1i121 bl1_21 wl1_2 wl1_2b cellP
xl1i122 bl1_22 wl1_2 wl1_2b cellN
xl1i123 bl1_23 wl1_2 wl1_2b cellN
xl1i124 bl1_24 wl1_2 wl1_2b cellN
xl1i125 bl1_25 wl1_2 wl1_2b cellN
xl1i126 bl1_26 wl1_2 wl1_2b cellN
xl1i127 bl1_27 wl1_2 wl1_2b cellP
xl1i128 bl1_28 wl1_2 wl1_2b cellP
xl1i129 bl1_29 wl1_2 wl1_2b cellN
xl1i130 bl1_30 wl1_2 wl1_2b cellP
xl1i131 bl1_31 wl1_2 wl1_2b cellN
xl1i132 bl1_32 wl1_2 wl1_2b cellP
xl1i133 bl1_33 wl1_2 wl1_2b cellN
xl1i134 bl1_34 wl1_2 wl1_2b cellN
xl1i135 bl1_35 wl1_2 wl1_2b cellP
xl1i136 bl1_36 wl1_2 wl1_2b cellN
xl1i137 bl1_37 wl1_2 wl1_2b cellN
xl1i138 bl1_38 wl1_2 wl1_2b cellP
xl1i139 bl1_39 wl1_2 wl1_2b cellN
xl1i140 bl1_40 wl1_2 wl1_2b cellN
xl1i141 bl1_41 wl1_2 wl1_2b cellN
xl1i142 bl1_42 wl1_2 wl1_2b cellN
xl1i143 bl1_43 wl1_2 wl1_2b cellP
xl1i144 bl1_44 wl1_2 wl1_2b cellP
xl1i145 bl1_45 wl1_2 wl1_2b cellN
xl1i146 bl1_46 wl1_2 wl1_2b cellN
xl1i147 bl1_47 wl1_2 wl1_2b cellP
xl1i148 bl1_48 wl1_2 wl1_2b cellP
xl1i149 bl1_49 wl1_2 wl1_2b cellN
xl1i150 bl1_50 wl1_2 wl1_2b cellP
xl1i151 bl1_51 wl1_2 wl1_2b cellP
xl1i152 bl1_52 wl1_2 wl1_2b cellN
xl1i153 bl1_53 wl1_2 wl1_2b cellP
xl1i154 bl1_54 wl1_2 wl1_2b cellN
xl1i155 bl1_55 wl1_2 wl1_2b cellP
xl1i156 bl1_56 wl1_2 wl1_2b cellP
xl1i157 bl1_57 wl1_2 wl1_2b cellN
xl1i158 bl1_58 wl1_2 wl1_2b cellN
xl1i159 bl1_59 wl1_2 wl1_2b cellN
xl1i160 bl1_60 wl1_2 wl1_2b cellP
xl1i161 bl1_61 wl1_2 wl1_2b cellN
xl1i162 bl1_62 wl1_2 wl1_2b cellN
xl1i163 bl1_63 wl1_2 wl1_2b cellP
xl1i164 bl1_64 wl1_2 wl1_2b cellN
xl1i165 bl1_65 wl1_2 wl1_2b cellN
xl1i166 bl1_66 wl1_2 wl1_2b cellN
xl1i167 bl1_67 wl1_2 wl1_2b cellP
xl1i168 bl1_68 wl1_2 wl1_2b cellP
xl1i169 bl1_69 wl1_2 wl1_2b cellN
xl1i170 bl1_70 wl1_2 wl1_2b cellP
xl1i171 bl1_71 wl1_2 wl1_2b cellN
xl1i172 bl1_72 wl1_2 wl1_2b cellP
xl1i173 bl1_73 wl1_2 wl1_2b cellP
xl1i174 bl1_74 wl1_2 wl1_2b cellN
xl1i175 bl1_75 wl1_2 wl1_2b cellP
xl1i176 bl1_76 wl1_2 wl1_2b cellP
xl1i177 bl1_77 wl1_2 wl1_2b cellP
xl1i178 bl1_78 wl1_2 wl1_2b cellN
xl1i179 bl1_79 wl1_2 wl1_2b cellP
xl1i180 bl1_80 wl1_2 wl1_2b cellP
xl1i181 bl1_81 wl1_2 wl1_2b cellN
xl1i182 bl1_82 wl1_2 wl1_2b cellN
xl1i183 bl1_83 wl1_2 wl1_2b cellP
xl1i184 bl1_84 wl1_2 wl1_2b cellP
xl1i185 bl1_85 wl1_2 wl1_2b cellP
xl1i186 bl1_86 wl1_2 wl1_2b cellP
xl1i187 bl1_87 wl1_2 wl1_2b cellN
xl1i188 bl1_88 wl1_2 wl1_2b cellN
xl1i189 bl1_89 wl1_2 wl1_2b cellN
xl1i190 bl1_90 wl1_2 wl1_2b cellP
xl1i191 bl1_91 wl1_2 wl1_2b cellN
xl1i192 bl1_92 wl1_2 wl1_2b cellN
xl1i193 bl1_93 wl1_2 wl1_2b cellP
xl1i194 bl1_94 wl1_2 wl1_2b cellP
xl1i195 bl1_95 wl1_2 wl1_2b cellP
xl1i196 bl1_96 wl1_2 wl1_2b cellN
xl1i197 bl1_97 wl1_2 wl1_2b cellN
xl1i198 bl1_98 wl1_2 wl1_2b cellP
xl1i199 bl1_99 wl1_2 wl1_2b cellP
xl1i200 bl1_100 wl1_2 wl1_2b cellP
xl1i201 bl1_1 wl1_3 wl1_3b cellN
xl1i202 bl1_2 wl1_3 wl1_3b cellP
xl1i203 bl1_3 wl1_3 wl1_3b cellP
xl1i204 bl1_4 wl1_3 wl1_3b cellP
xl1i205 bl1_5 wl1_3 wl1_3b cellP
xl1i206 bl1_6 wl1_3 wl1_3b cellN
xl1i207 bl1_7 wl1_3 wl1_3b cellN
xl1i208 bl1_8 wl1_3 wl1_3b cellN
xl1i209 bl1_9 wl1_3 wl1_3b cellN
xl1i210 bl1_10 wl1_3 wl1_3b cellP
xl1i211 bl1_11 wl1_3 wl1_3b cellN
xl1i212 bl1_12 wl1_3 wl1_3b cellP
xl1i213 bl1_13 wl1_3 wl1_3b cellN
xl1i214 bl1_14 wl1_3 wl1_3b cellN
xl1i215 bl1_15 wl1_3 wl1_3b cellN
xl1i216 bl1_16 wl1_3 wl1_3b cellP
xl1i217 bl1_17 wl1_3 wl1_3b cellP
xl1i218 bl1_18 wl1_3 wl1_3b cellP
xl1i219 bl1_19 wl1_3 wl1_3b cellP
xl1i220 bl1_20 wl1_3 wl1_3b cellP
xl1i221 bl1_21 wl1_3 wl1_3b cellP
xl1i222 bl1_22 wl1_3 wl1_3b cellP
xl1i223 bl1_23 wl1_3 wl1_3b cellP
xl1i224 bl1_24 wl1_3 wl1_3b cellP
xl1i225 bl1_25 wl1_3 wl1_3b cellN
xl1i226 bl1_26 wl1_3 wl1_3b cellP
xl1i227 bl1_27 wl1_3 wl1_3b cellP
xl1i228 bl1_28 wl1_3 wl1_3b cellP
xl1i229 bl1_29 wl1_3 wl1_3b cellP
xl1i230 bl1_30 wl1_3 wl1_3b cellN
xl1i231 bl1_31 wl1_3 wl1_3b cellP
xl1i232 bl1_32 wl1_3 wl1_3b cellN
xl1i233 bl1_33 wl1_3 wl1_3b cellP
xl1i234 bl1_34 wl1_3 wl1_3b cellN
xl1i235 bl1_35 wl1_3 wl1_3b cellN
xl1i236 bl1_36 wl1_3 wl1_3b cellN
xl1i237 bl1_37 wl1_3 wl1_3b cellP
xl1i238 bl1_38 wl1_3 wl1_3b cellP
xl1i239 bl1_39 wl1_3 wl1_3b cellN
xl1i240 bl1_40 wl1_3 wl1_3b cellP
xl1i241 bl1_41 wl1_3 wl1_3b cellN
xl1i242 bl1_42 wl1_3 wl1_3b cellN
xl1i243 bl1_43 wl1_3 wl1_3b cellN
xl1i244 bl1_44 wl1_3 wl1_3b cellP
xl1i245 bl1_45 wl1_3 wl1_3b cellP
xl1i246 bl1_46 wl1_3 wl1_3b cellP
xl1i247 bl1_47 wl1_3 wl1_3b cellP
xl1i248 bl1_48 wl1_3 wl1_3b cellN
xl1i249 bl1_49 wl1_3 wl1_3b cellN
xl1i250 bl1_50 wl1_3 wl1_3b cellP
xl1i251 bl1_51 wl1_3 wl1_3b cellP
xl1i252 bl1_52 wl1_3 wl1_3b cellP
xl1i253 bl1_53 wl1_3 wl1_3b cellP
xl1i254 bl1_54 wl1_3 wl1_3b cellN
xl1i255 bl1_55 wl1_3 wl1_3b cellP
xl1i256 bl1_56 wl1_3 wl1_3b cellP
xl1i257 bl1_57 wl1_3 wl1_3b cellP
xl1i258 bl1_58 wl1_3 wl1_3b cellN
xl1i259 bl1_59 wl1_3 wl1_3b cellN
xl1i260 bl1_60 wl1_3 wl1_3b cellP
xl1i261 bl1_61 wl1_3 wl1_3b cellN
xl1i262 bl1_62 wl1_3 wl1_3b cellP
xl1i263 bl1_63 wl1_3 wl1_3b cellP
xl1i264 bl1_64 wl1_3 wl1_3b cellP
xl1i265 bl1_65 wl1_3 wl1_3b cellP
xl1i266 bl1_66 wl1_3 wl1_3b cellP
xl1i267 bl1_67 wl1_3 wl1_3b cellP
xl1i268 bl1_68 wl1_3 wl1_3b cellN
xl1i269 bl1_69 wl1_3 wl1_3b cellN
xl1i270 bl1_70 wl1_3 wl1_3b cellP
xl1i271 bl1_71 wl1_3 wl1_3b cellN
xl1i272 bl1_72 wl1_3 wl1_3b cellN
xl1i273 bl1_73 wl1_3 wl1_3b cellN
xl1i274 bl1_74 wl1_3 wl1_3b cellP
xl1i275 bl1_75 wl1_3 wl1_3b cellN
xl1i276 bl1_76 wl1_3 wl1_3b cellN
xl1i277 bl1_77 wl1_3 wl1_3b cellP
xl1i278 bl1_78 wl1_3 wl1_3b cellP
xl1i279 bl1_79 wl1_3 wl1_3b cellN
xl1i280 bl1_80 wl1_3 wl1_3b cellP
xl1i281 bl1_81 wl1_3 wl1_3b cellN
xl1i282 bl1_82 wl1_3 wl1_3b cellP
xl1i283 bl1_83 wl1_3 wl1_3b cellP
xl1i284 bl1_84 wl1_3 wl1_3b cellN
xl1i285 bl1_85 wl1_3 wl1_3b cellP
xl1i286 bl1_86 wl1_3 wl1_3b cellP
xl1i287 bl1_87 wl1_3 wl1_3b cellP
xl1i288 bl1_88 wl1_3 wl1_3b cellN
xl1i289 bl1_89 wl1_3 wl1_3b cellP
xl1i290 bl1_90 wl1_3 wl1_3b cellN
xl1i291 bl1_91 wl1_3 wl1_3b cellN
xl1i292 bl1_92 wl1_3 wl1_3b cellN
xl1i293 bl1_93 wl1_3 wl1_3b cellP
xl1i294 bl1_94 wl1_3 wl1_3b cellN
xl1i295 bl1_95 wl1_3 wl1_3b cellP
xl1i296 bl1_96 wl1_3 wl1_3b cellP
xl1i297 bl1_97 wl1_3 wl1_3b cellN
xl1i298 bl1_98 wl1_3 wl1_3b cellP
xl1i299 bl1_99 wl1_3 wl1_3b cellN
xl1i300 bl1_100 wl1_3 wl1_3b cellN
xl1i301 bl1_1 wl1_4 wl1_4b cellN
xl1i302 bl1_2 wl1_4 wl1_4b cellP
xl1i303 bl1_3 wl1_4 wl1_4b cellN
xl1i304 bl1_4 wl1_4 wl1_4b cellN
xl1i305 bl1_5 wl1_4 wl1_4b cellP
xl1i306 bl1_6 wl1_4 wl1_4b cellN
xl1i307 bl1_7 wl1_4 wl1_4b cellN
xl1i308 bl1_8 wl1_4 wl1_4b cellN
xl1i309 bl1_9 wl1_4 wl1_4b cellP
xl1i310 bl1_10 wl1_4 wl1_4b cellP
xl1i311 bl1_11 wl1_4 wl1_4b cellP
xl1i312 bl1_12 wl1_4 wl1_4b cellN
xl1i313 bl1_13 wl1_4 wl1_4b cellN
xl1i314 bl1_14 wl1_4 wl1_4b cellP
xl1i315 bl1_15 wl1_4 wl1_4b cellP
xl1i316 bl1_16 wl1_4 wl1_4b cellN
xl1i317 bl1_17 wl1_4 wl1_4b cellP
xl1i318 bl1_18 wl1_4 wl1_4b cellP
xl1i319 bl1_19 wl1_4 wl1_4b cellP
xl1i320 bl1_20 wl1_4 wl1_4b cellP
xl1i321 bl1_21 wl1_4 wl1_4b cellN
xl1i322 bl1_22 wl1_4 wl1_4b cellP
xl1i323 bl1_23 wl1_4 wl1_4b cellP
xl1i324 bl1_24 wl1_4 wl1_4b cellP
xl1i325 bl1_25 wl1_4 wl1_4b cellP
xl1i326 bl1_26 wl1_4 wl1_4b cellP
xl1i327 bl1_27 wl1_4 wl1_4b cellP
xl1i328 bl1_28 wl1_4 wl1_4b cellP
xl1i329 bl1_29 wl1_4 wl1_4b cellP
xl1i330 bl1_30 wl1_4 wl1_4b cellN
xl1i331 bl1_31 wl1_4 wl1_4b cellN
xl1i332 bl1_32 wl1_4 wl1_4b cellN
xl1i333 bl1_33 wl1_4 wl1_4b cellP
xl1i334 bl1_34 wl1_4 wl1_4b cellP
xl1i335 bl1_35 wl1_4 wl1_4b cellN
xl1i336 bl1_36 wl1_4 wl1_4b cellN
xl1i337 bl1_37 wl1_4 wl1_4b cellN
xl1i338 bl1_38 wl1_4 wl1_4b cellN
xl1i339 bl1_39 wl1_4 wl1_4b cellN
xl1i340 bl1_40 wl1_4 wl1_4b cellP
xl1i341 bl1_41 wl1_4 wl1_4b cellN
xl1i342 bl1_42 wl1_4 wl1_4b cellN
xl1i343 bl1_43 wl1_4 wl1_4b cellP
xl1i344 bl1_44 wl1_4 wl1_4b cellP
xl1i345 bl1_45 wl1_4 wl1_4b cellN
xl1i346 bl1_46 wl1_4 wl1_4b cellP
xl1i347 bl1_47 wl1_4 wl1_4b cellP
xl1i348 bl1_48 wl1_4 wl1_4b cellN
xl1i349 bl1_49 wl1_4 wl1_4b cellN
xl1i350 bl1_50 wl1_4 wl1_4b cellP
xl1i351 bl1_51 wl1_4 wl1_4b cellN
xl1i352 bl1_52 wl1_4 wl1_4b cellN
xl1i353 bl1_53 wl1_4 wl1_4b cellN
xl1i354 bl1_54 wl1_4 wl1_4b cellN
xl1i355 bl1_55 wl1_4 wl1_4b cellP
xl1i356 bl1_56 wl1_4 wl1_4b cellP
xl1i357 bl1_57 wl1_4 wl1_4b cellP
xl1i358 bl1_58 wl1_4 wl1_4b cellN
xl1i359 bl1_59 wl1_4 wl1_4b cellP
xl1i360 bl1_60 wl1_4 wl1_4b cellP
xl1i361 bl1_61 wl1_4 wl1_4b cellN
xl1i362 bl1_62 wl1_4 wl1_4b cellP
xl1i363 bl1_63 wl1_4 wl1_4b cellN
xl1i364 bl1_64 wl1_4 wl1_4b cellP
xl1i365 bl1_65 wl1_4 wl1_4b cellP
xl1i366 bl1_66 wl1_4 wl1_4b cellP
xl1i367 bl1_67 wl1_4 wl1_4b cellP
xl1i368 bl1_68 wl1_4 wl1_4b cellP
xl1i369 bl1_69 wl1_4 wl1_4b cellN
xl1i370 bl1_70 wl1_4 wl1_4b cellP
xl1i371 bl1_71 wl1_4 wl1_4b cellN
xl1i372 bl1_72 wl1_4 wl1_4b cellP
xl1i373 bl1_73 wl1_4 wl1_4b cellN
xl1i374 bl1_74 wl1_4 wl1_4b cellP
xl1i375 bl1_75 wl1_4 wl1_4b cellP
xl1i376 bl1_76 wl1_4 wl1_4b cellN
xl1i377 bl1_77 wl1_4 wl1_4b cellP
xl1i378 bl1_78 wl1_4 wl1_4b cellP
xl1i379 bl1_79 wl1_4 wl1_4b cellN
xl1i380 bl1_80 wl1_4 wl1_4b cellP
xl1i381 bl1_81 wl1_4 wl1_4b cellP
xl1i382 bl1_82 wl1_4 wl1_4b cellP
xl1i383 bl1_83 wl1_4 wl1_4b cellP
xl1i384 bl1_84 wl1_4 wl1_4b cellN
xl1i385 bl1_85 wl1_4 wl1_4b cellP
xl1i386 bl1_86 wl1_4 wl1_4b cellN
xl1i387 bl1_87 wl1_4 wl1_4b cellN
xl1i388 bl1_88 wl1_4 wl1_4b cellP
xl1i389 bl1_89 wl1_4 wl1_4b cellN
xl1i390 bl1_90 wl1_4 wl1_4b cellN
xl1i391 bl1_91 wl1_4 wl1_4b cellN
xl1i392 bl1_92 wl1_4 wl1_4b cellP
xl1i393 bl1_93 wl1_4 wl1_4b cellP
xl1i394 bl1_94 wl1_4 wl1_4b cellP
xl1i395 bl1_95 wl1_4 wl1_4b cellN
xl1i396 bl1_96 wl1_4 wl1_4b cellP
xl1i397 bl1_97 wl1_4 wl1_4b cellP
xl1i398 bl1_98 wl1_4 wl1_4b cellP
xl1i399 bl1_99 wl1_4 wl1_4b cellP
xl1i400 bl1_100 wl1_4 wl1_4b cellN
xl1i401 bl1_1 wl1_5 wl1_5b cellN
xl1i402 bl1_2 wl1_5 wl1_5b cellN
xl1i403 bl1_3 wl1_5 wl1_5b cellN
xl1i404 bl1_4 wl1_5 wl1_5b cellN
xl1i405 bl1_5 wl1_5 wl1_5b cellN
xl1i406 bl1_6 wl1_5 wl1_5b cellN
xl1i407 bl1_7 wl1_5 wl1_5b cellP
xl1i408 bl1_8 wl1_5 wl1_5b cellN
xl1i409 bl1_9 wl1_5 wl1_5b cellN
xl1i410 bl1_10 wl1_5 wl1_5b cellN
xl1i411 bl1_11 wl1_5 wl1_5b cellP
xl1i412 bl1_12 wl1_5 wl1_5b cellN
xl1i413 bl1_13 wl1_5 wl1_5b cellP
xl1i414 bl1_14 wl1_5 wl1_5b cellP
xl1i415 bl1_15 wl1_5 wl1_5b cellP
xl1i416 bl1_16 wl1_5 wl1_5b cellN
xl1i417 bl1_17 wl1_5 wl1_5b cellN
xl1i418 bl1_18 wl1_5 wl1_5b cellN
xl1i419 bl1_19 wl1_5 wl1_5b cellP
xl1i420 bl1_20 wl1_5 wl1_5b cellN
xl1i421 bl1_21 wl1_5 wl1_5b cellP
xl1i422 bl1_22 wl1_5 wl1_5b cellP
xl1i423 bl1_23 wl1_5 wl1_5b cellN
xl1i424 bl1_24 wl1_5 wl1_5b cellP
xl1i425 bl1_25 wl1_5 wl1_5b cellN
xl1i426 bl1_26 wl1_5 wl1_5b cellP
xl1i427 bl1_27 wl1_5 wl1_5b cellN
xl1i428 bl1_28 wl1_5 wl1_5b cellN
xl1i429 bl1_29 wl1_5 wl1_5b cellP
xl1i430 bl1_30 wl1_5 wl1_5b cellN
xl1i431 bl1_31 wl1_5 wl1_5b cellN
xl1i432 bl1_32 wl1_5 wl1_5b cellN
xl1i433 bl1_33 wl1_5 wl1_5b cellP
xl1i434 bl1_34 wl1_5 wl1_5b cellN
xl1i435 bl1_35 wl1_5 wl1_5b cellN
xl1i436 bl1_36 wl1_5 wl1_5b cellP
xl1i437 bl1_37 wl1_5 wl1_5b cellP
xl1i438 bl1_38 wl1_5 wl1_5b cellP
xl1i439 bl1_39 wl1_5 wl1_5b cellP
xl1i440 bl1_40 wl1_5 wl1_5b cellN
xl1i441 bl1_41 wl1_5 wl1_5b cellP
xl1i442 bl1_42 wl1_5 wl1_5b cellN
xl1i443 bl1_43 wl1_5 wl1_5b cellP
xl1i444 bl1_44 wl1_5 wl1_5b cellN
xl1i445 bl1_45 wl1_5 wl1_5b cellN
xl1i446 bl1_46 wl1_5 wl1_5b cellP
xl1i447 bl1_47 wl1_5 wl1_5b cellN
xl1i448 bl1_48 wl1_5 wl1_5b cellP
xl1i449 bl1_49 wl1_5 wl1_5b cellN
xl1i450 bl1_50 wl1_5 wl1_5b cellN
xl1i451 bl1_51 wl1_5 wl1_5b cellP
xl1i452 bl1_52 wl1_5 wl1_5b cellN
xl1i453 bl1_53 wl1_5 wl1_5b cellN
xl1i454 bl1_54 wl1_5 wl1_5b cellN
xl1i455 bl1_55 wl1_5 wl1_5b cellN
xl1i456 bl1_56 wl1_5 wl1_5b cellP
xl1i457 bl1_57 wl1_5 wl1_5b cellN
xl1i458 bl1_58 wl1_5 wl1_5b cellP
xl1i459 bl1_59 wl1_5 wl1_5b cellP
xl1i460 bl1_60 wl1_5 wl1_5b cellN
xl1i461 bl1_61 wl1_5 wl1_5b cellP
xl1i462 bl1_62 wl1_5 wl1_5b cellP
xl1i463 bl1_63 wl1_5 wl1_5b cellN
xl1i464 bl1_64 wl1_5 wl1_5b cellP
xl1i465 bl1_65 wl1_5 wl1_5b cellP
xl1i466 bl1_66 wl1_5 wl1_5b cellP
xl1i467 bl1_67 wl1_5 wl1_5b cellN
xl1i468 bl1_68 wl1_5 wl1_5b cellP
xl1i469 bl1_69 wl1_5 wl1_5b cellP
xl1i470 bl1_70 wl1_5 wl1_5b cellP
xl1i471 bl1_71 wl1_5 wl1_5b cellN
xl1i472 bl1_72 wl1_5 wl1_5b cellP
xl1i473 bl1_73 wl1_5 wl1_5b cellP
xl1i474 bl1_74 wl1_5 wl1_5b cellP
xl1i475 bl1_75 wl1_5 wl1_5b cellN
xl1i476 bl1_76 wl1_5 wl1_5b cellP
xl1i477 bl1_77 wl1_5 wl1_5b cellP
xl1i478 bl1_78 wl1_5 wl1_5b cellN
xl1i479 bl1_79 wl1_5 wl1_5b cellP
xl1i480 bl1_80 wl1_5 wl1_5b cellP
xl1i481 bl1_81 wl1_5 wl1_5b cellP
xl1i482 bl1_82 wl1_5 wl1_5b cellN
xl1i483 bl1_83 wl1_5 wl1_5b cellN
xl1i484 bl1_84 wl1_5 wl1_5b cellP
xl1i485 bl1_85 wl1_5 wl1_5b cellP
xl1i486 bl1_86 wl1_5 wl1_5b cellP
xl1i487 bl1_87 wl1_5 wl1_5b cellP
xl1i488 bl1_88 wl1_5 wl1_5b cellP
xl1i489 bl1_89 wl1_5 wl1_5b cellP
xl1i490 bl1_90 wl1_5 wl1_5b cellN
xl1i491 bl1_91 wl1_5 wl1_5b cellP
xl1i492 bl1_92 wl1_5 wl1_5b cellP
xl1i493 bl1_93 wl1_5 wl1_5b cellP
xl1i494 bl1_94 wl1_5 wl1_5b cellP
xl1i495 bl1_95 wl1_5 wl1_5b cellN
xl1i496 bl1_96 wl1_5 wl1_5b cellN
xl1i497 bl1_97 wl1_5 wl1_5b cellP
xl1i498 bl1_98 wl1_5 wl1_5b cellP
xl1i499 bl1_99 wl1_5 wl1_5b cellN
xl1i500 bl1_100 wl1_5 wl1_5b cellN
xl1i501 bl1_1 wl1_6 wl1_6b cellP
xl1i502 bl1_2 wl1_6 wl1_6b cellP
xl1i503 bl1_3 wl1_6 wl1_6b cellN
xl1i504 bl1_4 wl1_6 wl1_6b cellN
xl1i505 bl1_5 wl1_6 wl1_6b cellP
xl1i506 bl1_6 wl1_6 wl1_6b cellP
xl1i507 bl1_7 wl1_6 wl1_6b cellP
xl1i508 bl1_8 wl1_6 wl1_6b cellP
xl1i509 bl1_9 wl1_6 wl1_6b cellN
xl1i510 bl1_10 wl1_6 wl1_6b cellP
xl1i511 bl1_11 wl1_6 wl1_6b cellN
xl1i512 bl1_12 wl1_6 wl1_6b cellN
xl1i513 bl1_13 wl1_6 wl1_6b cellP
xl1i514 bl1_14 wl1_6 wl1_6b cellP
xl1i515 bl1_15 wl1_6 wl1_6b cellP
xl1i516 bl1_16 wl1_6 wl1_6b cellN
xl1i517 bl1_17 wl1_6 wl1_6b cellN
xl1i518 bl1_18 wl1_6 wl1_6b cellP
xl1i519 bl1_19 wl1_6 wl1_6b cellP
xl1i520 bl1_20 wl1_6 wl1_6b cellP
xl1i521 bl1_21 wl1_6 wl1_6b cellP
xl1i522 bl1_22 wl1_6 wl1_6b cellP
xl1i523 bl1_23 wl1_6 wl1_6b cellN
xl1i524 bl1_24 wl1_6 wl1_6b cellN
xl1i525 bl1_25 wl1_6 wl1_6b cellN
xl1i526 bl1_26 wl1_6 wl1_6b cellP
xl1i527 bl1_27 wl1_6 wl1_6b cellN
xl1i528 bl1_28 wl1_6 wl1_6b cellN
xl1i529 bl1_29 wl1_6 wl1_6b cellN
xl1i530 bl1_30 wl1_6 wl1_6b cellN
xl1i531 bl1_31 wl1_6 wl1_6b cellN
xl1i532 bl1_32 wl1_6 wl1_6b cellN
xl1i533 bl1_33 wl1_6 wl1_6b cellN
xl1i534 bl1_34 wl1_6 wl1_6b cellP
xl1i535 bl1_35 wl1_6 wl1_6b cellN
xl1i536 bl1_36 wl1_6 wl1_6b cellP
xl1i537 bl1_37 wl1_6 wl1_6b cellP
xl1i538 bl1_38 wl1_6 wl1_6b cellP
xl1i539 bl1_39 wl1_6 wl1_6b cellN
xl1i540 bl1_40 wl1_6 wl1_6b cellN
xl1i541 bl1_41 wl1_6 wl1_6b cellN
xl1i542 bl1_42 wl1_6 wl1_6b cellN
xl1i543 bl1_43 wl1_6 wl1_6b cellP
xl1i544 bl1_44 wl1_6 wl1_6b cellP
xl1i545 bl1_45 wl1_6 wl1_6b cellP
xl1i546 bl1_46 wl1_6 wl1_6b cellN
xl1i547 bl1_47 wl1_6 wl1_6b cellN
xl1i548 bl1_48 wl1_6 wl1_6b cellN
xl1i549 bl1_49 wl1_6 wl1_6b cellP
xl1i550 bl1_50 wl1_6 wl1_6b cellP
xl1i551 bl1_51 wl1_6 wl1_6b cellN
xl1i552 bl1_52 wl1_6 wl1_6b cellN
xl1i553 bl1_53 wl1_6 wl1_6b cellN
xl1i554 bl1_54 wl1_6 wl1_6b cellN
xl1i555 bl1_55 wl1_6 wl1_6b cellP
xl1i556 bl1_56 wl1_6 wl1_6b cellP
xl1i557 bl1_57 wl1_6 wl1_6b cellN
xl1i558 bl1_58 wl1_6 wl1_6b cellP
xl1i559 bl1_59 wl1_6 wl1_6b cellN
xl1i560 bl1_60 wl1_6 wl1_6b cellP
xl1i561 bl1_61 wl1_6 wl1_6b cellP
xl1i562 bl1_62 wl1_6 wl1_6b cellP
xl1i563 bl1_63 wl1_6 wl1_6b cellN
xl1i564 bl1_64 wl1_6 wl1_6b cellP
xl1i565 bl1_65 wl1_6 wl1_6b cellP
xl1i566 bl1_66 wl1_6 wl1_6b cellP
xl1i567 bl1_67 wl1_6 wl1_6b cellN
xl1i568 bl1_68 wl1_6 wl1_6b cellN
xl1i569 bl1_69 wl1_6 wl1_6b cellN
xl1i570 bl1_70 wl1_6 wl1_6b cellP
xl1i571 bl1_71 wl1_6 wl1_6b cellP
xl1i572 bl1_72 wl1_6 wl1_6b cellN
xl1i573 bl1_73 wl1_6 wl1_6b cellP
xl1i574 bl1_74 wl1_6 wl1_6b cellP
xl1i575 bl1_75 wl1_6 wl1_6b cellP
xl1i576 bl1_76 wl1_6 wl1_6b cellP
xl1i577 bl1_77 wl1_6 wl1_6b cellN
xl1i578 bl1_78 wl1_6 wl1_6b cellP
xl1i579 bl1_79 wl1_6 wl1_6b cellP
xl1i580 bl1_80 wl1_6 wl1_6b cellN
xl1i581 bl1_81 wl1_6 wl1_6b cellN
xl1i582 bl1_82 wl1_6 wl1_6b cellP
xl1i583 bl1_83 wl1_6 wl1_6b cellN
xl1i584 bl1_84 wl1_6 wl1_6b cellP
xl1i585 bl1_85 wl1_6 wl1_6b cellN
xl1i586 bl1_86 wl1_6 wl1_6b cellP
xl1i587 bl1_87 wl1_6 wl1_6b cellP
xl1i588 bl1_88 wl1_6 wl1_6b cellN
xl1i589 bl1_89 wl1_6 wl1_6b cellP
xl1i590 bl1_90 wl1_6 wl1_6b cellN
xl1i591 bl1_91 wl1_6 wl1_6b cellP
xl1i592 bl1_92 wl1_6 wl1_6b cellP
xl1i593 bl1_93 wl1_6 wl1_6b cellN
xl1i594 bl1_94 wl1_6 wl1_6b cellN
xl1i595 bl1_95 wl1_6 wl1_6b cellP
xl1i596 bl1_96 wl1_6 wl1_6b cellN
xl1i597 bl1_97 wl1_6 wl1_6b cellN
xl1i598 bl1_98 wl1_6 wl1_6b cellN
xl1i599 bl1_99 wl1_6 wl1_6b cellN
xl1i600 bl1_100 wl1_6 wl1_6b cellN
xl1i601 bl1_1 wl1_7 wl1_7b cellN
xl1i602 bl1_2 wl1_7 wl1_7b cellP
xl1i603 bl1_3 wl1_7 wl1_7b cellP
xl1i604 bl1_4 wl1_7 wl1_7b cellP
xl1i605 bl1_5 wl1_7 wl1_7b cellP
xl1i606 bl1_6 wl1_7 wl1_7b cellN
xl1i607 bl1_7 wl1_7 wl1_7b cellP
xl1i608 bl1_8 wl1_7 wl1_7b cellP
xl1i609 bl1_9 wl1_7 wl1_7b cellN
xl1i610 bl1_10 wl1_7 wl1_7b cellP
xl1i611 bl1_11 wl1_7 wl1_7b cellN
xl1i612 bl1_12 wl1_7 wl1_7b cellP
xl1i613 bl1_13 wl1_7 wl1_7b cellP
xl1i614 bl1_14 wl1_7 wl1_7b cellN
xl1i615 bl1_15 wl1_7 wl1_7b cellN
xl1i616 bl1_16 wl1_7 wl1_7b cellN
xl1i617 bl1_17 wl1_7 wl1_7b cellP
xl1i618 bl1_18 wl1_7 wl1_7b cellN
xl1i619 bl1_19 wl1_7 wl1_7b cellP
xl1i620 bl1_20 wl1_7 wl1_7b cellP
xl1i621 bl1_21 wl1_7 wl1_7b cellP
xl1i622 bl1_22 wl1_7 wl1_7b cellN
xl1i623 bl1_23 wl1_7 wl1_7b cellN
xl1i624 bl1_24 wl1_7 wl1_7b cellN
xl1i625 bl1_25 wl1_7 wl1_7b cellN
xl1i626 bl1_26 wl1_7 wl1_7b cellP
xl1i627 bl1_27 wl1_7 wl1_7b cellP
xl1i628 bl1_28 wl1_7 wl1_7b cellN
xl1i629 bl1_29 wl1_7 wl1_7b cellN
xl1i630 bl1_30 wl1_7 wl1_7b cellP
xl1i631 bl1_31 wl1_7 wl1_7b cellN
xl1i632 bl1_32 wl1_7 wl1_7b cellN
xl1i633 bl1_33 wl1_7 wl1_7b cellN
xl1i634 bl1_34 wl1_7 wl1_7b cellP
xl1i635 bl1_35 wl1_7 wl1_7b cellN
xl1i636 bl1_36 wl1_7 wl1_7b cellP
xl1i637 bl1_37 wl1_7 wl1_7b cellP
xl1i638 bl1_38 wl1_7 wl1_7b cellP
xl1i639 bl1_39 wl1_7 wl1_7b cellP
xl1i640 bl1_40 wl1_7 wl1_7b cellN
xl1i641 bl1_41 wl1_7 wl1_7b cellN
xl1i642 bl1_42 wl1_7 wl1_7b cellN
xl1i643 bl1_43 wl1_7 wl1_7b cellN
xl1i644 bl1_44 wl1_7 wl1_7b cellN
xl1i645 bl1_45 wl1_7 wl1_7b cellP
xl1i646 bl1_46 wl1_7 wl1_7b cellN
xl1i647 bl1_47 wl1_7 wl1_7b cellP
xl1i648 bl1_48 wl1_7 wl1_7b cellN
xl1i649 bl1_49 wl1_7 wl1_7b cellN
xl1i650 bl1_50 wl1_7 wl1_7b cellN
xl1i651 bl1_51 wl1_7 wl1_7b cellP
xl1i652 bl1_52 wl1_7 wl1_7b cellP
xl1i653 bl1_53 wl1_7 wl1_7b cellN
xl1i654 bl1_54 wl1_7 wl1_7b cellN
xl1i655 bl1_55 wl1_7 wl1_7b cellN
xl1i656 bl1_56 wl1_7 wl1_7b cellP
xl1i657 bl1_57 wl1_7 wl1_7b cellP
xl1i658 bl1_58 wl1_7 wl1_7b cellN
xl1i659 bl1_59 wl1_7 wl1_7b cellP
xl1i660 bl1_60 wl1_7 wl1_7b cellN
xl1i661 bl1_61 wl1_7 wl1_7b cellP
xl1i662 bl1_62 wl1_7 wl1_7b cellN
xl1i663 bl1_63 wl1_7 wl1_7b cellP
xl1i664 bl1_64 wl1_7 wl1_7b cellN
xl1i665 bl1_65 wl1_7 wl1_7b cellP
xl1i666 bl1_66 wl1_7 wl1_7b cellP
xl1i667 bl1_67 wl1_7 wl1_7b cellP
xl1i668 bl1_68 wl1_7 wl1_7b cellN
xl1i669 bl1_69 wl1_7 wl1_7b cellP
xl1i670 bl1_70 wl1_7 wl1_7b cellN
xl1i671 bl1_71 wl1_7 wl1_7b cellN
xl1i672 bl1_72 wl1_7 wl1_7b cellP
xl1i673 bl1_73 wl1_7 wl1_7b cellN
xl1i674 bl1_74 wl1_7 wl1_7b cellP
xl1i675 bl1_75 wl1_7 wl1_7b cellN
xl1i676 bl1_76 wl1_7 wl1_7b cellP
xl1i677 bl1_77 wl1_7 wl1_7b cellP
xl1i678 bl1_78 wl1_7 wl1_7b cellN
xl1i679 bl1_79 wl1_7 wl1_7b cellN
xl1i680 bl1_80 wl1_7 wl1_7b cellN
xl1i681 bl1_81 wl1_7 wl1_7b cellN
xl1i682 bl1_82 wl1_7 wl1_7b cellP
xl1i683 bl1_83 wl1_7 wl1_7b cellP
xl1i684 bl1_84 wl1_7 wl1_7b cellN
xl1i685 bl1_85 wl1_7 wl1_7b cellN
xl1i686 bl1_86 wl1_7 wl1_7b cellN
xl1i687 bl1_87 wl1_7 wl1_7b cellP
xl1i688 bl1_88 wl1_7 wl1_7b cellP
xl1i689 bl1_89 wl1_7 wl1_7b cellP
xl1i690 bl1_90 wl1_7 wl1_7b cellN
xl1i691 bl1_91 wl1_7 wl1_7b cellN
xl1i692 bl1_92 wl1_7 wl1_7b cellN
xl1i693 bl1_93 wl1_7 wl1_7b cellN
xl1i694 bl1_94 wl1_7 wl1_7b cellN
xl1i695 bl1_95 wl1_7 wl1_7b cellP
xl1i696 bl1_96 wl1_7 wl1_7b cellN
xl1i697 bl1_97 wl1_7 wl1_7b cellP
xl1i698 bl1_98 wl1_7 wl1_7b cellN
xl1i699 bl1_99 wl1_7 wl1_7b cellP
xl1i700 bl1_100 wl1_7 wl1_7b cellP
xl1i701 bl1_1 wl1_8 wl1_8b cellP
xl1i702 bl1_2 wl1_8 wl1_8b cellN
xl1i703 bl1_3 wl1_8 wl1_8b cellN
xl1i704 bl1_4 wl1_8 wl1_8b cellN
xl1i705 bl1_5 wl1_8 wl1_8b cellN
xl1i706 bl1_6 wl1_8 wl1_8b cellP
xl1i707 bl1_7 wl1_8 wl1_8b cellP
xl1i708 bl1_8 wl1_8 wl1_8b cellP
xl1i709 bl1_9 wl1_8 wl1_8b cellN
xl1i710 bl1_10 wl1_8 wl1_8b cellN
xl1i711 bl1_11 wl1_8 wl1_8b cellP
xl1i712 bl1_12 wl1_8 wl1_8b cellP
xl1i713 bl1_13 wl1_8 wl1_8b cellP
xl1i714 bl1_14 wl1_8 wl1_8b cellN
xl1i715 bl1_15 wl1_8 wl1_8b cellN
xl1i716 bl1_16 wl1_8 wl1_8b cellP
xl1i717 bl1_17 wl1_8 wl1_8b cellP
xl1i718 bl1_18 wl1_8 wl1_8b cellN
xl1i719 bl1_19 wl1_8 wl1_8b cellN
xl1i720 bl1_20 wl1_8 wl1_8b cellP
xl1i721 bl1_21 wl1_8 wl1_8b cellP
xl1i722 bl1_22 wl1_8 wl1_8b cellN
xl1i723 bl1_23 wl1_8 wl1_8b cellN
xl1i724 bl1_24 wl1_8 wl1_8b cellN
xl1i725 bl1_25 wl1_8 wl1_8b cellP
xl1i726 bl1_26 wl1_8 wl1_8b cellP
xl1i727 bl1_27 wl1_8 wl1_8b cellN
xl1i728 bl1_28 wl1_8 wl1_8b cellN
xl1i729 bl1_29 wl1_8 wl1_8b cellN
xl1i730 bl1_30 wl1_8 wl1_8b cellP
xl1i731 bl1_31 wl1_8 wl1_8b cellP
xl1i732 bl1_32 wl1_8 wl1_8b cellN
xl1i733 bl1_33 wl1_8 wl1_8b cellP
xl1i734 bl1_34 wl1_8 wl1_8b cellN
xl1i735 bl1_35 wl1_8 wl1_8b cellP
xl1i736 bl1_36 wl1_8 wl1_8b cellN
xl1i737 bl1_37 wl1_8 wl1_8b cellP
xl1i738 bl1_38 wl1_8 wl1_8b cellP
xl1i739 bl1_39 wl1_8 wl1_8b cellP
xl1i740 bl1_40 wl1_8 wl1_8b cellN
xl1i741 bl1_41 wl1_8 wl1_8b cellN
xl1i742 bl1_42 wl1_8 wl1_8b cellN
xl1i743 bl1_43 wl1_8 wl1_8b cellN
xl1i744 bl1_44 wl1_8 wl1_8b cellN
xl1i745 bl1_45 wl1_8 wl1_8b cellN
xl1i746 bl1_46 wl1_8 wl1_8b cellP
xl1i747 bl1_47 wl1_8 wl1_8b cellP
xl1i748 bl1_48 wl1_8 wl1_8b cellP
xl1i749 bl1_49 wl1_8 wl1_8b cellN
xl1i750 bl1_50 wl1_8 wl1_8b cellP
xl1i751 bl1_51 wl1_8 wl1_8b cellP
xl1i752 bl1_52 wl1_8 wl1_8b cellN
xl1i753 bl1_53 wl1_8 wl1_8b cellP
xl1i754 bl1_54 wl1_8 wl1_8b cellN
xl1i755 bl1_55 wl1_8 wl1_8b cellP
xl1i756 bl1_56 wl1_8 wl1_8b cellN
xl1i757 bl1_57 wl1_8 wl1_8b cellN
xl1i758 bl1_58 wl1_8 wl1_8b cellP
xl1i759 bl1_59 wl1_8 wl1_8b cellP
xl1i760 bl1_60 wl1_8 wl1_8b cellN
xl1i761 bl1_61 wl1_8 wl1_8b cellN
xl1i762 bl1_62 wl1_8 wl1_8b cellP
xl1i763 bl1_63 wl1_8 wl1_8b cellN
xl1i764 bl1_64 wl1_8 wl1_8b cellN
xl1i765 bl1_65 wl1_8 wl1_8b cellP
xl1i766 bl1_66 wl1_8 wl1_8b cellN
xl1i767 bl1_67 wl1_8 wl1_8b cellN
xl1i768 bl1_68 wl1_8 wl1_8b cellN
xl1i769 bl1_69 wl1_8 wl1_8b cellN
xl1i770 bl1_70 wl1_8 wl1_8b cellN
xl1i771 bl1_71 wl1_8 wl1_8b cellN
xl1i772 bl1_72 wl1_8 wl1_8b cellN
xl1i773 bl1_73 wl1_8 wl1_8b cellN
xl1i774 bl1_74 wl1_8 wl1_8b cellN
xl1i775 bl1_75 wl1_8 wl1_8b cellN
xl1i776 bl1_76 wl1_8 wl1_8b cellP
xl1i777 bl1_77 wl1_8 wl1_8b cellP
xl1i778 bl1_78 wl1_8 wl1_8b cellN
xl1i779 bl1_79 wl1_8 wl1_8b cellN
xl1i780 bl1_80 wl1_8 wl1_8b cellN
xl1i781 bl1_81 wl1_8 wl1_8b cellN
xl1i782 bl1_82 wl1_8 wl1_8b cellP
xl1i783 bl1_83 wl1_8 wl1_8b cellP
xl1i784 bl1_84 wl1_8 wl1_8b cellP
xl1i785 bl1_85 wl1_8 wl1_8b cellN
xl1i786 bl1_86 wl1_8 wl1_8b cellP
xl1i787 bl1_87 wl1_8 wl1_8b cellP
xl1i788 bl1_88 wl1_8 wl1_8b cellN
xl1i789 bl1_89 wl1_8 wl1_8b cellN
xl1i790 bl1_90 wl1_8 wl1_8b cellP
xl1i791 bl1_91 wl1_8 wl1_8b cellP
xl1i792 bl1_92 wl1_8 wl1_8b cellP
xl1i793 bl1_93 wl1_8 wl1_8b cellP
xl1i794 bl1_94 wl1_8 wl1_8b cellP
xl1i795 bl1_95 wl1_8 wl1_8b cellP
xl1i796 bl1_96 wl1_8 wl1_8b cellP
xl1i797 bl1_97 wl1_8 wl1_8b cellN
xl1i798 bl1_98 wl1_8 wl1_8b cellN
xl1i799 bl1_99 wl1_8 wl1_8b cellP
xl1i800 bl1_100 wl1_8 wl1_8b cellP
xl1Subtractor1 wl2_1 wl2_1b vb net137 bl1_1 INVA_iris_1 
xl1Subtractor2 wl2_2 wl2_2b vb net137 bl1_2 INVA_iris_1 
xl1Subtractor3 wl2_3 wl2_3b vb net137 bl1_3 INVA_iris_1 
xl1Subtractor4 wl2_4 wl2_4b vb net137 bl1_4 INVA_iris_1 
xl1Subtractor5 wl2_5 wl2_5b vb net137 bl1_5 INVA_iris_1 
xl1Subtractor6 wl2_6 wl2_6b vb net137 bl1_6 INVA_iris_1 
xl1Subtractor7 wl2_7 wl2_7b vb net137 bl1_7 INVA_iris_1 
xl1Subtractor8 wl2_8 wl2_8b vb net137 bl1_8 INVA_iris_1 
xl1Subtractor9 wl2_9 wl2_9b vb net137 bl1_9 INVA_iris_1 
xl1Subtractor10 wl2_10 wl2_10b vb net137 bl1_10 INVA_iris_1 
xl1Subtractor11 wl2_11 wl2_11b vb net137 bl1_11 INVA_iris_1 
xl1Subtractor12 wl2_12 wl2_12b vb net137 bl1_12 INVA_iris_1 
xl1Subtractor13 wl2_13 wl2_13b vb net137 bl1_13 INVA_iris_1 
xl1Subtractor14 wl2_14 wl2_14b vb net137 bl1_14 INVA_iris_1 
xl1Subtractor15 wl2_15 wl2_15b vb net137 bl1_15 INVA_iris_1 
xl1Subtractor16 wl2_16 wl2_16b vb net137 bl1_16 INVA_iris_1 
xl1Subtractor17 wl2_17 wl2_17b vb net137 bl1_17 INVA_iris_1 
xl1Subtractor18 wl2_18 wl2_18b vb net137 bl1_18 INVA_iris_1 
xl1Subtractor19 wl2_19 wl2_19b vb net137 bl1_19 INVA_iris_1 
xl1Subtractor20 wl2_20 wl2_20b vb net137 bl1_20 INVA_iris_1 
xl1Subtractor21 wl2_21 wl2_21b vb net137 bl1_21 INVA_iris_1 
xl1Subtractor22 wl2_22 wl2_22b vb net137 bl1_22 INVA_iris_1 
xl1Subtractor23 wl2_23 wl2_23b vb net137 bl1_23 INVA_iris_1 
xl1Subtractor24 wl2_24 wl2_24b vb net137 bl1_24 INVA_iris_1 
xl1Subtractor25 wl2_25 wl2_25b vb net137 bl1_25 INVA_iris_1 
xl1Subtractor26 wl2_26 wl2_26b vb net137 bl1_26 INVA_iris_1 