.PARAM mvdd=1.8
.TRAN 1u 121u
VVDD VDD 0 DC mvdd
VG G 0 DC 0
VV0 V0 0 DC 0.9
VVB VB 0 DC 0.6

.PROBE V(*) I(*) 
.PROBE tran v(OUT1) 
.PROBE tran v(OUT2) 
.PROBE tran v(OUT3) 

.include "../bu40n1.mdl"
.lib "../bu40n1.skw" NT
.lib "../bu40n1.skw" PT

VWL1_1 WL1_1 0 PWL 
+    0n  mvdd 
+    300n mvdd 
+    301n 0 
+    800n 0 
+    801n mvdd 
+    1100n mvdd 
+    1101n 0 
+    1600n 0 
+    1601n mvdd 
+    1900n mvdd 
+    1901n 0 
+    2400n 0 
+    2401n mvdd 
+    2700n mvdd 
+    2701n 0 
+    3200n 0 
+    3201n mvdd 
+    3500n mvdd 
+    3501n 0 
+    4000n 0 
+    4001n mvdd 
+    4300n mvdd 
+    4301n mvdd 
+    4800n mvdd 
+    4801n mvdd 
+    5100n mvdd 
+    5101n 0 
+    5600n 0 
+    5601n mvdd 
+    5900n mvdd 
+    5901n 0 
+    6400n 0 
+    6401n mvdd 
+    6700n mvdd 
+    6701n 0 
+    7200n 0 
+    7201n mvdd 
+    7500n mvdd 
+    7501n 0 
+    8000n 0 
+    8001n mvdd 
+    8300n mvdd 
+    8301n mvdd 
+    8800n mvdd 
+    8801n mvdd 
+    9100n mvdd 
+    9101n 0 
+    9600n 0 
+    9601n mvdd 
+    9900n mvdd 
+    9901n 0 
+    10400n 0 
+    10401n mvdd 
+    10700n mvdd 
+    10701n 0 
+    11200n 0 
+    11201n mvdd 
+    11500n mvdd 
+    11501n mvdd 
+    12000n mvdd 
+    12001n mvdd 
+    12300n mvdd 
+    12301n mvdd 
+    12800n mvdd 
+    12801n mvdd 
+    13100n mvdd 
+    13101n mvdd 
+    13600n mvdd 
+    13601n mvdd 
+    13900n mvdd 
+    13901n 0 
+    14400n 0 
+    14401n mvdd 
+    14700n mvdd 
+    14701n mvdd 
+    15200n mvdd 
+    15201n mvdd 
+    15500n mvdd 
+    15501n 0 
+    16000n 0 
+    16001n mvdd 
+    16300n mvdd 
+    16301n mvdd 
+    16800n mvdd 
+    16801n mvdd 
+    17100n mvdd 
+    17101n 0 
+    17600n 0 
+    17601n mvdd 
+    17900n mvdd 
+    17901n 0 
+    18400n 0 
+    18401n mvdd 
+    18700n mvdd 
+    18701n 0 
+    19200n 0 
+    19201n mvdd 
+    19500n mvdd 
+    19501n 0 
+    20000n 0 
+    20001n mvdd 
+    20300n mvdd 
+    20301n 0 
+    20800n 0 
+    20801n mvdd 
+    21100n mvdd 
+    21101n 0 
+    21600n 0 
+    21601n mvdd 
+    21900n mvdd 
+    21901n mvdd 
+    22400n mvdd 
+    22401n mvdd 
+    22700n mvdd 
+    22701n mvdd 
+    23200n mvdd 
+    23201n mvdd 
+    23500n mvdd 
+    23501n 0 
+    24000n 0 
+    24001n mvdd 
+    24300n mvdd 
+    24301n 0 
+    24800n 0 
+    24801n mvdd 
+    25100n mvdd 
+    25101n mvdd 
+    25600n mvdd 
+    25601n mvdd 
+    25900n mvdd 
+    25901n mvdd 
+    26400n mvdd 
+    26401n mvdd 
+    26700n mvdd 
+    26701n mvdd 
+    27200n mvdd 
+    27201n mvdd 
+    27500n mvdd 
+    27501n 0 
+    28000n 0 
+    28001n mvdd 
+    28300n mvdd 
+    28301n 0 
+    28800n 0 
+    28801n mvdd 
+    29100n mvdd 
+    29101n mvdd 
+    29600n mvdd 
+    29601n mvdd 
+    29900n mvdd 
+    29901n 0 
+    30400n 0 
+    30401n mvdd 
+    30700n mvdd 
+    30701n 0 
+    31200n 0 
+    31201n mvdd 
+    31500n mvdd 
+    31501n 0 
+    32000n 0 
+    32001n mvdd 
+    32300n mvdd 
+    32301n 0 
+    32800n 0 
+    32801n mvdd 
+    33100n mvdd 
+    33101n 0 
+    33600n 0 
+    33601n mvdd 
+    33900n mvdd 
+    33901n 0 
+    34400n 0 
+    34401n mvdd 
+    34700n mvdd 
+    34701n 0 
+    35200n 0 
+    35201n mvdd 
+    35500n mvdd 
+    35501n 0 
+    36000n 0 
+    36001n mvdd 
+    36300n mvdd 
+    36301n 0 
+    36800n 0 
+    36801n mvdd 
+    37100n mvdd 
+    37101n 0 
+    37600n 0 
+    37601n mvdd 
+    37900n mvdd 
+    37901n 0 
+    38400n 0 
+    38401n mvdd 
+    38700n mvdd 
+    38701n mvdd 
+    39200n mvdd 
+    39201n mvdd 
+    39500n mvdd 
+    39501n 0 
+    40000n 0 
+    40001n mvdd 
+    40300n mvdd 
+    40301n mvdd 
+    40800n mvdd 
+    40801n mvdd 
+    41100n mvdd 
+    41101n 0 
+    41600n 0 
+    41601n mvdd 
+    41900n mvdd 
+    41901n 0 
+    42400n 0 
+    42401n mvdd 
+    42700n mvdd 
+    42701n mvdd 
+    43200n mvdd 
+    43201n mvdd 
+    43500n mvdd 
+    43501n 0 
+    44000n 0 
+    44001n mvdd 
+    44300n mvdd 
+    44301n mvdd 
+    44800n mvdd 
+    44801n mvdd 
+    45100n mvdd 
+    45101n 0 
+    45600n 0 
+    45601n mvdd 
+    45900n mvdd 
+    45901n 0 
+    46400n 0 
+    46401n mvdd 
+    46700n mvdd 
+    46701n 0 
+    47200n 0 
+    47201n mvdd 
+    47500n mvdd 
+    47501n mvdd 
+    48000n mvdd 
+    48001n mvdd 
+    48300n mvdd 
+    48301n 0 
+    48800n 0 
+    48801n mvdd 
+    49100n mvdd 
+    49101n mvdd 
+    49600n mvdd 
+    49601n mvdd 
+    49900n mvdd 
+    49901n mvdd 
+    50400n mvdd 
+    50401n mvdd 
+    50700n mvdd 
+    50701n 0 
+    51200n 0 
+    51201n mvdd 
+    51500n mvdd 
+    51501n mvdd 
+    52000n mvdd 
+    52001n mvdd 
+    52300n mvdd 
+    52301n 0 
+    52800n 0 
+    52801n mvdd 
+    53100n mvdd 
+    53101n mvdd 
+    53600n mvdd 
+    53601n mvdd 
+    53900n mvdd 
+    53901n mvdd 
+    54400n mvdd 
+    54401n mvdd 
+    54700n mvdd 
+    54701n 0 
+    55200n 0 
+    55201n mvdd 
+    55500n mvdd 
+    55501n mvdd 
+    56000n mvdd 
+    56001n mvdd 
+    56300n mvdd 
+    56301n mvdd 
+    56800n mvdd 
+    56801n mvdd 
+    57100n mvdd 
+    57101n 0 
+    57600n 0 
+    57601n mvdd 
+    57900n mvdd 
+    57901n 0 
+    58400n 0 
+    58401n mvdd 
+    58700n mvdd 
+    58701n 0 
+    59200n 0 
+    59201n mvdd 
+    59500n mvdd 
+    59501n 0 
+    60000n 0 
+    60001n mvdd 
+    60300n mvdd 
+    60301n 0 
+    60800n 0 
+    60801n mvdd 
+    61100n mvdd 
+    61101n 0 
+    61600n 0 
+    61601n mvdd 
+    61900n mvdd 
+    61901n 0 
+    62400n 0 
+    62401n mvdd 
+    62700n mvdd 
+    62701n mvdd 
+    63200n mvdd 
+    63201n mvdd 
+    63500n mvdd 
+    63501n mvdd 
+    64000n mvdd 
+    64001n mvdd 
+    64300n mvdd 
+    64301n mvdd 
+    64800n mvdd 
+    64801n mvdd 
+    65100n mvdd 
+    65101n mvdd 
+    65600n mvdd 
+    65601n mvdd 
+    65900n mvdd 
+    65901n mvdd 
+    66400n mvdd 
+    66401n mvdd 
+    66700n mvdd 
+    66701n mvdd 
+    67200n mvdd 
+    67201n mvdd 
+    67500n mvdd 
+    67501n mvdd 
+    68000n mvdd 
+    68001n mvdd 
+    68300n mvdd 
+    68301n mvdd 
+    68800n mvdd 
+    68801n mvdd 
+    69100n mvdd 
+    69101n 0 
+    69600n 0 
+    69601n mvdd 
+    69900n mvdd 
+    69901n 0 
+    70400n 0 
+    70401n mvdd 
+    70700n mvdd 
+    70701n mvdd 
+    71200n mvdd 
+    71201n mvdd 
+    71500n mvdd 
+    71501n mvdd 
+    72000n mvdd 
+    72001n mvdd 
+    72300n mvdd 
+    72301n mvdd 
+    72800n mvdd 
+    72801n mvdd 
+    73100n mvdd 
+    73101n 0 
+    73600n 0 
+    73601n mvdd 
+    73900n mvdd 
+    73901n mvdd 
+    74400n mvdd 
+    74401n mvdd 
+    74700n mvdd 
+    74701n 0 
+    75200n 0 
+    75201n mvdd 
+    75500n mvdd 
+    75501n mvdd 
+    76000n mvdd 
+    76001n mvdd 
+    76300n mvdd 
+    76301n mvdd 
+    76800n mvdd 
+    76801n mvdd 
+    77100n mvdd 
+    77101n mvdd 
+    77600n mvdd 
+    77601n mvdd 
+    77900n mvdd 
+    77901n 0 
+    78400n 0 
+    78401n mvdd 
+    78700n mvdd 
+    78701n 0 
+    79200n 0 
+    79201n mvdd 
+    79500n mvdd 
+    79501n mvdd 
+    80000n mvdd 
+    80001n mvdd 
+    80300n mvdd 
+    80301n 0 
+    80800n 0 
+    80801n mvdd 
+    81100n mvdd 
+    81101n mvdd 
+    81600n mvdd 
+    81601n mvdd 
+    81900n mvdd 
+    81901n mvdd 
+    82400n mvdd 
+    82401n mvdd 
+    82700n mvdd 
+    82701n 0 
+    83200n 0 
+    83201n mvdd 
+    83500n mvdd 
+    83501n 0 
+    84000n 0 
+    84001n mvdd 
+    84300n mvdd 
+    84301n mvdd 
+    84800n mvdd 
+    84801n mvdd 
+    85100n mvdd 
+    85101n 0 
+    85600n 0 
+    85601n mvdd 
+    85900n mvdd 
+    85901n mvdd 
+    86400n mvdd 
+    86401n mvdd 
+    86700n mvdd 
+    86701n 0 
+    87200n 0 
+    87201n mvdd 
+    87500n mvdd 
+    87501n mvdd 
+    88000n mvdd 
+    88001n mvdd 
+    88300n mvdd 
+    88301n 0 
+    88800n 0 
+    88801n mvdd 
+    89100n mvdd 
+    89101n 0 
+    89600n 0 
+    89601n mvdd 
+    89900n mvdd 
+    89901n 0 
+    90400n 0 
+    90401n mvdd 
+    90700n mvdd 
+    90701n mvdd 
+    91200n mvdd 
+    91201n mvdd 
+    91500n mvdd 
+    91501n mvdd 
+    92000n mvdd 
+    92001n mvdd 
+    92300n mvdd 
+    92301n 0 
+    92800n 0 
+    92801n mvdd 
+    93100n mvdd 
+    93101n 0 
+    93600n 0 
+    93601n mvdd 
+    93900n mvdd 
+    93901n mvdd 
+    94400n mvdd 
+    94401n mvdd 
+    94700n mvdd 
+    94701n mvdd 
+    95200n mvdd 
+    95201n mvdd 
+    95500n mvdd 
+    95501n mvdd 
+    96000n mvdd 
+    96001n mvdd 
+    96300n mvdd 
+    96301n 0 
+    96800n 0 
+    96801n mvdd 
+    97100n mvdd 
+    97101n mvdd 
+    97600n mvdd 
+    97601n mvdd 
+    97900n mvdd 
+    97901n mvdd 
+    98400n mvdd 
+    98401n mvdd 
+    98700n mvdd 
+    98701n 0 
+    99200n 0 
+    99201n mvdd 
+    99500n mvdd 
+    99501n 0 
+    100000n 0 
+    100001n mvdd 
+    100300n mvdd 
+    100301n mvdd 
+    100800n mvdd 
+    100801n mvdd 
+    101100n mvdd 
+    101101n 0 
+    101600n 0 
+    101601n mvdd 
+    101900n mvdd 
+    101901n 0 
+    102400n 0 
+    102401n mvdd 
+    102700n mvdd 
+    102701n 0 
+    103200n 0 
+    103201n mvdd 
+    103500n mvdd 
+    103501n mvdd 
+    104000n mvdd 
+    104001n mvdd 
+    104300n mvdd 
+    104301n mvdd 
+    104800n mvdd 
+    104801n mvdd 
+    105100n mvdd 
+    105101n mvdd 
+    105600n mvdd 
+    105601n mvdd 
+    105900n mvdd 
+    105901n 0 
+    106400n 0 
+    106401n mvdd 
+    106700n mvdd 
+    106701n 0 
+    107200n 0 
+    107201n mvdd 
+    107500n mvdd 
+    107501n 0 
+    108000n 0 
+    108001n mvdd 
+    108300n mvdd 
+    108301n mvdd 
+    108800n mvdd 
+    108801n mvdd 
+    109100n mvdd 
+    109101n 0 
+    109600n 0 
+    109601n mvdd 
+    109900n mvdd 
+    109901n 0 
+    110400n 0 
+    110401n mvdd 
+    110700n mvdd 
+    110701n mvdd 
+    111200n mvdd 
+    111201n mvdd 
+    111500n mvdd 
+    111501n 0 
+    112000n 0 
+    112001n mvdd 
+    112300n mvdd 
+    112301n 0 
+    112800n 0 
+    112801n mvdd 
+    113100n mvdd 
+    113101n 0 
+    113600n 0 
+    113601n mvdd 
+    113900n mvdd 
+    113901n mvdd 
+    114400n mvdd 
+    114401n mvdd 
+    114700n mvdd 
+    114701n 0 
+    115200n 0 
+    115201n mvdd 
+    115500n mvdd 
+    115501n 0 
+    116000n 0 
+    116001n mvdd 
+    116300n mvdd 
+    116301n 0 
+    116800n 0 
+    116801n mvdd 
+    117100n mvdd 
+    117101n 0 
+    117600n 0 
+    117601n mvdd 
+    117900n mvdd 
+    117901n 0 
+    118400n 0 
+    118401n mvdd 
+    118700n mvdd 
+    118701n 0 
+    119200n 0 
+    119201n mvdd 
+    119500n mvdd 
+    119501n mvdd 
+    120000n mvdd 
VWL1_2 WL1_2 0 PWL 
+    0n  mvdd 
+    300n mvdd 
+    301n 0 
+    800n 0 
+    801n mvdd 
+    1100n mvdd 
+    1101n 0 
+    1600n 0 
+    1601n mvdd 
+    1900n mvdd 
+    1901n 0 
+    2400n 0 
+    2401n mvdd 
+    2700n mvdd 
+    2701n 0 
+    3200n 0 
+    3201n mvdd 
+    3500n mvdd 
+    3501n 0 
+    4000n 0 
+    4001n mvdd 
+    4300n mvdd 
+    4301n 0 
+    4800n 0 
+    4801n mvdd 
+    5100n mvdd 
+    5101n 0 
+    5600n 0 
+    5601n mvdd 
+    5900n mvdd 
+    5901n 0 
+    6400n 0 
+    6401n mvdd 
+    6700n mvdd 
+    6701n 0 
+    7200n 0 
+    7201n mvdd 
+    7500n mvdd 
+    7501n 0 
+    8000n 0 
+    8001n mvdd 
+    8300n mvdd 
+    8301n 0 
+    8800n 0 
+    8801n mvdd 
+    9100n mvdd 
+    9101n 0 
+    9600n 0 
+    9601n mvdd 
+    9900n mvdd 
+    9901n 0 
+    10400n 0 
+    10401n mvdd 
+    10700n mvdd 
+    10701n 0 
+    11200n 0 
+    11201n mvdd 
+    11500n mvdd 
+    11501n 0 
+    12000n 0 
+    12001n mvdd 
+    12300n mvdd 
+    12301n 0 
+    12800n 0 
+    12801n mvdd 
+    13100n mvdd 
+    13101n 0 
+    13600n 0 
+    13601n mvdd 
+    13900n mvdd 
+    13901n 0 
+    14400n 0 
+    14401n mvdd 
+    14700n mvdd 
+    14701n 0 
+    15200n 0 
+    15201n mvdd 
+    15500n mvdd 
+    15501n 0 
+    16000n 0 
+    16001n mvdd 
+    16300n mvdd 
+    16301n 0 
+    16800n 0 
+    16801n mvdd 
+    17100n mvdd 
+    17101n 0 
+    17600n 0 
+    17601n mvdd 
+    17900n mvdd 
+    17901n 0 
+    18400n 0 
+    18401n mvdd 
+    18700n mvdd 
+    18701n 0 
+    19200n 0 
+    19201n mvdd 
+    19500n mvdd 
+    19501n 0 
+    20000n 0 
+    20001n mvdd 
+    20300n mvdd 
+    20301n 0 
+    20800n 0 
+    20801n mvdd 
+    21100n mvdd 
+    21101n 0 
+    21600n 0 
+    21601n mvdd 
+    21900n mvdd 
+    21901n 0 
+    22400n 0 
+    22401n mvdd 
+    22700n mvdd 
+    22701n 0 
+    23200n 0 
+    23201n mvdd 
+    23500n mvdd 
+    23501n 0 
+    24000n 0 
+    24001n mvdd 
+    24300n mvdd 
+    24301n 0 
+    24800n 0 
+    24801n mvdd 
+    25100n mvdd 
+    25101n 0 
+    25600n 0 
+    25601n mvdd 
+    25900n mvdd 
+    25901n 0 
+    26400n 0 
+    26401n mvdd 
+    26700n mvdd 
+    26701n 0 
+    27200n 0 
+    27201n mvdd 
+    27500n mvdd 
+    27501n 0 
+    28000n 0 
+    28001n mvdd 
+    28300n mvdd 
+    28301n 0 
+    28800n 0 
+    28801n mvdd 
+    29100n mvdd 
+    29101n 0 
+    29600n 0 
+    29601n mvdd 
+    29900n mvdd 
+    29901n 0 
+    30400n 0 
+    30401n mvdd 
+    30700n mvdd 
+    30701n 0 
+    31200n 0 
+    31201n mvdd 
+    31500n mvdd 
+    31501n 0 
+    32000n 0 
+    32001n mvdd 
+    32300n mvdd 
+    32301n 0 
+    32800n 0 
+    32801n mvdd 
+    33100n mvdd 
+    33101n 0 
+    33600n 0 
+    33601n mvdd 
+    33900n mvdd 
+    33901n 0 
+    34400n 0 
+    34401n mvdd 
+    34700n mvdd 
+    34701n 0 
+    35200n 0 
+    35201n mvdd 
+    35500n mvdd 
+    35501n 0 
+    36000n 0 
+    36001n mvdd 
+    36300n mvdd 
+    36301n 0 
+    36800n 0 
+    36801n mvdd 
+    37100n mvdd 
+    37101n 0 
+    37600n 0 
+    37601n mvdd 
+    37900n mvdd 
+    37901n 0 
+    38400n 0 
+    38401n mvdd 
+    38700n mvdd 
+    38701n 0 
+    39200n 0 
+    39201n mvdd 
+    39500n mvdd 
+    39501n 0 
+    40000n 0 
+    40001n mvdd 
+    40300n mvdd 
+    40301n mvdd 
+    40800n mvdd 
+    40801n mvdd 
+    41100n mvdd 
+    41101n mvdd 
+    41600n mvdd 
+    41601n mvdd 
+    41900n mvdd 
+    41901n mvdd 
+    42400n mvdd 
+    42401n mvdd 
+    42700n mvdd 
+    42701n 0 
+    43200n 0 
+    43201n mvdd 
+    43500n mvdd 
+    43501n mvdd 
+    44000n mvdd 
+    44001n mvdd 
+    44300n mvdd 
+    44301n 0 
+    44800n 0 
+    44801n mvdd 
+    45100n mvdd 
+    45101n mvdd 
+    45600n mvdd 
+    45601n mvdd 
+    45900n mvdd 
+    45901n 0 
+    46400n 0 
+    46401n mvdd 
+    46700n mvdd 
+    46701n mvdd 
+    47200n mvdd 
+    47201n mvdd 
+    47500n mvdd 
+    47501n 0 
+    48000n 0 
+    48001n mvdd 
+    48300n mvdd 
+    48301n 0 
+    48800n 0 
+    48801n mvdd 
+    49100n mvdd 
+    49101n 0 
+    49600n 0 
+    49601n mvdd 
+    49900n mvdd 
+    49901n 0 
+    50400n 0 
+    50401n mvdd 
+    50700n mvdd 
+    50701n mvdd 
+    51200n mvdd 
+    51201n mvdd 
+    51500n mvdd 
+    51501n 0 
+    52000n 0 
+    52001n mvdd 
+    52300n mvdd 
+    52301n mvdd 
+    52800n mvdd 
+    52801n mvdd 
+    53100n mvdd 
+    53101n 0 
+    53600n 0 
+    53601n mvdd 
+    53900n mvdd 
+    53901n 0 
+    54400n 0 
+    54401n mvdd 
+    54700n mvdd 
+    54701n mvdd 
+    55200n mvdd 
+    55201n mvdd 
+    55500n mvdd 
+    55501n 0 
+    56000n 0 
+    56001n mvdd 
+    56300n mvdd 
+    56301n 0 
+    56800n 0 
+    56801n mvdd 
+    57100n mvdd 
+    57101n mvdd 
+    57600n mvdd 
+    57601n mvdd 
+    57900n mvdd 
+    57901n mvdd 
+    58400n mvdd 
+    58401n mvdd 
+    58700n mvdd 
+    58701n mvdd 
+    59200n mvdd 
+    59201n mvdd 
+    59500n mvdd 
+    59501n mvdd 
+    60000n mvdd 
+    60001n mvdd 
+    60300n mvdd 
+    60301n mvdd 
+    60800n mvdd 
+    60801n mvdd 
+    61100n mvdd 
+    61101n mvdd 
+    61600n mvdd 
+    61601n mvdd 
+    61900n mvdd 
+    61901n mvdd 
+    62400n mvdd 
+    62401n mvdd 
+    62700n mvdd 
+    62701n 0 
+    63200n 0 
+    63201n mvdd 
+    63500n mvdd 
+    63501n 0 
+    64000n 0 
+    64001n mvdd 
+    64300n mvdd 
+    64301n 0 
+    64800n 0 
+    64801n mvdd 
+    65100n mvdd 
+    65101n 0 
+    65600n 0 
+    65601n mvdd 
+    65900n mvdd 
+    65901n 0 
+    66400n 0 
+    66401n mvdd 
+    66700n mvdd 
+    66701n 0 
+    67200n 0 
+    67201n mvdd 
+    67500n mvdd 
+    67501n 0 
+    68000n 0 
+    68001n mvdd 
+    68300n mvdd 
+    68301n 0 
+    68800n 0 
+    68801n mvdd 
+    69100n mvdd 
+    69101n mvdd 
+    69600n mvdd 
+    69601n mvdd 
+    69900n mvdd 
+    69901n mvdd 
+    70400n mvdd 
+    70401n mvdd 
+    70700n mvdd 
+    70701n 0 
+    71200n 0 
+    71201n mvdd 
+    71500n mvdd 
+    71501n 0 
+    72000n 0 
+    72001n mvdd 
+    72300n mvdd 
+    72301n 0 
+    72800n 0 
+    72801n mvdd 
+    73100n mvdd 
+    73101n mvdd 
+    73600n mvdd 
+    73601n mvdd 
+    73900n mvdd 
+    73901n 0 
+    74400n 0 
+    74401n mvdd 
+    74700n mvdd 
+    74701n 0 
+    75200n 0 
+    75201n mvdd 
+    75500n mvdd 
+    75501n 0 
+    76000n 0 
+    76001n mvdd 
+    76300n mvdd 
+    76301n 0 
+    76800n 0 
+    76801n mvdd 
+    77100n mvdd 
+    77101n 0 
+    77600n 0 
+    77601n mvdd 
+    77900n mvdd 
+    77901n mvdd 
+    78400n mvdd 
+    78401n mvdd 
+    78700n mvdd 
+    78701n 0 
+    79200n 0 
+    79201n mvdd 
+    79500n mvdd 
+    79501n 0 
+    80000n 0 
+    80001n mvdd 
+    80300n mvdd 
+    80301n mvdd 
+    80800n mvdd 
+    80801n mvdd 
+    81100n mvdd 
+    81101n 0 
+    81600n 0 
+    81601n mvdd 
+    81900n mvdd 
+    81901n mvdd 
+    82400n mvdd 
+    82401n mvdd 
+    82700n mvdd 
+    82701n mvdd 
+    83200n mvdd 
+    83201n mvdd 
+    83500n mvdd 
+    83501n mvdd 
+    84000n mvdd 
+    84001n mvdd 
+    84300n mvdd 
+    84301n mvdd 
+    84800n mvdd 
+    84801n mvdd 
+    85100n mvdd 
+    85101n 0 
+    85600n 0 
+    85601n mvdd 
+    85900n mvdd 
+    85901n mvdd 
+    86400n mvdd 
+    86401n mvdd 
+    86700n mvdd 
+    86701n mvdd 
+    87200n mvdd 
+    87201n mvdd 
+    87500n mvdd 
+    87501n mvdd 
+    88000n mvdd 
+    88001n mvdd 
+    88300n mvdd 
+    88301n mvdd 
+    88800n mvdd 
+    88801n mvdd 
+    89100n mvdd 
+    89101n mvdd 
+    89600n mvdd 
+    89601n mvdd 
+    89900n mvdd 
+    89901n mvdd 
+    90400n mvdd 
+    90401n mvdd 
+    90700n mvdd 
+    90701n 0 
+    91200n 0 
+    91201n mvdd 
+    91500n mvdd 
+    91501n 0 
+    92000n 0 
+    92001n mvdd 
+    92300n mvdd 
+    92301n mvdd 
+    92800n mvdd 
+    92801n mvdd 
+    93100n mvdd 
+    93101n mvdd 
+    93600n mvdd 
+    93601n mvdd 
+    93900n mvdd 
+    93901n mvdd 
+    94400n mvdd 
+    94401n mvdd 
+    94700n mvdd 
+    94701n mvdd 
+    95200n mvdd 
+    95201n mvdd 
+    95500n mvdd 
+    95501n 0 
+    96000n 0 
+    96001n mvdd 
+    96300n mvdd 
+    96301n mvdd 
+    96800n mvdd 
+    96801n mvdd 
+    97100n mvdd 
+    97101n 0 
+    97600n 0 
+    97601n mvdd 
+    97900n mvdd 
+    97901n mvdd 
+    98400n mvdd 
+    98401n mvdd 
+    98700n mvdd 
+    98701n mvdd 
+    99200n mvdd 
+    99201n mvdd 
+    99500n mvdd 
+    99501n mvdd 
+    100000n mvdd 
+    100001n mvdd 
+    100300n mvdd 
+    100301n mvdd 
+    100800n mvdd 
+    100801n mvdd 
+    101100n mvdd 
+    101101n mvdd 
+    101600n mvdd 
+    101601n mvdd 
+    101900n mvdd 
+    101901n mvdd 
+    102400n mvdd 
+    102401n mvdd 
+    102700n mvdd 
+    102701n mvdd 
+    103200n mvdd 
+    103201n mvdd 
+    103500n mvdd 
+    103501n mvdd 
+    104000n mvdd 
+    104001n mvdd 
+    104300n mvdd 
+    104301n mvdd 
+    104800n mvdd 
+    104801n mvdd 
+    105100n mvdd 
+    105101n mvdd 
+    105600n mvdd 
+    105601n mvdd 
+    105900n mvdd 
+    105901n mvdd 
+    106400n mvdd 
+    106401n mvdd 
+    106700n mvdd 
+    106701n mvdd 
+    107200n mvdd 
+    107201n mvdd 
+    107500n mvdd 
+    107501n mvdd 
+    108000n mvdd 
+    108001n mvdd 
+    108300n mvdd 
+    108301n mvdd 
+    108800n mvdd 
+    108801n mvdd 
+    109100n mvdd 
+    109101n mvdd 
+    109600n mvdd 
+    109601n mvdd 
+    109900n mvdd 
+    109901n mvdd 
+    110400n mvdd 
+    110401n mvdd 
+    110700n mvdd 
+    110701n 0 
+    111200n 0 
+    111201n mvdd 
+    111500n mvdd 
+    111501n mvdd 
+    112000n mvdd 
+    112001n mvdd 
+    112300n mvdd 
+    112301n mvdd 
+    112800n mvdd 
+    112801n mvdd 
+    113100n mvdd 
+    113101n mvdd 
+    113600n mvdd 
+    113601n mvdd 
+    113900n mvdd 
+    113901n 0 
+    114400n 0 
+    114401n mvdd 
+    114700n mvdd 
+    114701n mvdd 
+    115200n mvdd 
+    115201n mvdd 
+    115500n mvdd 
+    115501n mvdd 
+    116000n mvdd 
+    116001n mvdd 
+    116300n mvdd 
+    116301n mvdd 
+    116800n mvdd 
+    116801n mvdd 
+    117100n mvdd 
+    117101n mvdd 
+    117600n mvdd 
+    117601n mvdd 
+    117900n mvdd 
+    117901n mvdd 
+    118400n mvdd 
+    118401n mvdd 
+    118700n mvdd 
+    118701n mvdd 
+    119200n mvdd 
+    119201n mvdd 
+    119500n mvdd 
+    119501n 0 
+    120000n 0 
VWL1_3 WL1_3 0 PWL 
+    0n  mvdd 
+    300n mvdd 
+    301n 0 
+    800n 0 
+    801n mvdd 
+    1100n mvdd 
+    1101n mvdd 
+    1600n mvdd 
+    1601n mvdd 
+    1900n mvdd 
+    1901n 0 
+    2400n 0 
+    2401n mvdd 
+    2700n mvdd 
+    2701n mvdd 
+    3200n mvdd 
+    3201n mvdd 
+    3500n mvdd 
+    3501n 0 
+    4000n 0 
+    4001n mvdd 
+    4300n mvdd 
+    4301n mvdd 
+    4800n mvdd 
+    4801n mvdd 
+    5100n mvdd 
+    5101n 0 
+    5600n 0 
+    5601n mvdd 
+    5900n mvdd 
+    5901n 0 
+    6400n 0 
+    6401n mvdd 
+    6700n mvdd 
+    6701n mvdd 
+    7200n mvdd 
+    7201n mvdd 
+    7500n mvdd 
+    7501n mvdd 
+    8000n mvdd 
+    8001n mvdd 
+    8300n mvdd 
+    8301n 0 
+    8800n 0 
+    8801n mvdd 
+    9100n mvdd 
+    9101n 0 
+    9600n 0 
+    9601n mvdd 
+    9900n mvdd 
+    9901n mvdd 
+    10400n mvdd 
+    10401n mvdd 
+    10700n mvdd 
+    10701n mvdd 
+    11200n mvdd 
+    11201n mvdd 
+    11500n mvdd 
+    11501n mvdd 
+    12000n mvdd 
+    12001n mvdd 
+    12300n mvdd 
+    12301n mvdd 
+    12800n mvdd 
+    12801n mvdd 
+    13100n mvdd 
+    13101n mvdd 
+    13600n mvdd 
+    13601n mvdd 
+    13900n mvdd 
+    13901n 0 
+    14400n 0 
+    14401n mvdd 
+    14700n mvdd 
+    14701n 0 
+    15200n 0 
+    15201n mvdd 
+    15500n mvdd 
+    15501n 0 
+    16000n 0 
+    16001n mvdd 
+    16300n mvdd 
+    16301n 0 
+    16800n 0 
+    16801n mvdd 
+    17100n mvdd 
+    17101n 0 
+    17600n 0 
+    17601n mvdd 
+    17900n mvdd 
+    17901n 0 
+    18400n 0 
+    18401n mvdd 
+    18700n mvdd 
+    18701n 0 
+    19200n 0 
+    19201n mvdd 
+    19500n mvdd 
+    19501n 0 
+    20000n 0 
+    20001n mvdd 
+    20300n mvdd 
+    20301n mvdd 
+    20800n mvdd 
+    20801n mvdd 
+    21100n mvdd 
+    21101n 0 
+    21600n 0 
+    21601n mvdd 
+    21900n mvdd 
+    21901n 0 
+    22400n 0 
+    22401n mvdd 
+    22700n mvdd 
+    22701n 0 
+    23200n 0 
+    23201n mvdd 
+    23500n mvdd 
+    23501n 0 
+    24000n 0 
+    24001n mvdd 
+    24300n mvdd 
+    24301n mvdd 
+    24800n mvdd 
+    24801n mvdd 
+    25100n mvdd 
+    25101n 0 
+    25600n 0 
+    25601n mvdd 
+    25900n mvdd 
+    25901n mvdd 
+    26400n mvdd 
+    26401n mvdd 
+    26700n mvdd 
+    26701n mvdd 
+    27200n mvdd 
+    27201n mvdd 
+    27500n mvdd 
+    27501n mvdd 
+    28000n mvdd 
+    28001n mvdd 
+    28300n mvdd 
+    28301n 0 
+    28800n 0 
+    28801n mvdd 
+    29100n mvdd 
+    29101n 0 
+    29600n 0 
+    29601n mvdd 
+    29900n mvdd 
+    29901n 0 
+    30400n 0 
+    30401n mvdd 
+    30700n mvdd 
+    30701n mvdd 
+    31200n mvdd 
+    31201n mvdd 
+    31500n mvdd 
+    31501n 0 
+    32000n 0 
+    32001n mvdd 
+    32300n mvdd 
+    32301n 0 
+    32800n 0 
+    32801n mvdd 
+    33100n mvdd 
+    33101n 0 
+    33600n 0 
+    33601n mvdd 
+    33900n mvdd 
+    33901n 0 
+    34400n 0 
+    34401n mvdd 
+    34700n mvdd 
+    34701n 0 
+    35200n 0 
+    35201n mvdd 
+    35500n mvdd 
+    35501n 0 
+    36000n 0 
+    36001n mvdd 
+    36300n mvdd 
+    36301n mvdd 
+    36800n mvdd 
+    36801n mvdd 
+    37100n mvdd 
+    37101n 0 
+    37600n 0 
+    37601n mvdd 
+    37900n mvdd 
+    37901n 0 
+    38400n 0 
+    38401n mvdd 
+    38700n mvdd 
+    38701n 0 
+    39200n 0 
+    39201n mvdd 
+    39500n mvdd 
+    39501n 0 
+    40000n 0 
+    40001n mvdd 
+    40300n mvdd 
+    40301n 0 
+    40800n 0 
+    40801n mvdd 
+    41100n mvdd 
+    41101n 0 
+    41600n 0 
+    41601n mvdd 
+    41900n mvdd 
+    41901n mvdd 
+    42400n mvdd 
+    42401n mvdd 
+    42700n mvdd 
+    42701n 0 
+    43200n 0 
+    43201n mvdd 
+    43500n mvdd 
+    43501n mvdd 
+    44000n mvdd 
+    44001n mvdd 
+    44300n mvdd 
+    44301n mvdd 
+    44800n mvdd 
+    44801n mvdd 
+    45100n mvdd 
+    45101n 0 
+    45600n 0 
+    45601n mvdd 
+    45900n mvdd 
+    45901n 0 
+    46400n 0 
+    46401n mvdd 
+    46700n mvdd 
+    46701n mvdd 
+    47200n mvdd 
+    47201n mvdd 
+    47500n mvdd 
+    47501n mvdd 
+    48000n mvdd 
+    48001n mvdd 
+    48300n mvdd 
+    48301n 0 
+    48800n 0 
+    48801n mvdd 
+    49100n mvdd 
+    49101n mvdd 
+    49600n mvdd 
+    49601n mvdd 
+    49900n mvdd 
+    49901n 0 
+    50400n 0 
+    50401n mvdd 
+    50700n mvdd 
+    50701n mvdd 
+    51200n mvdd 
+    51201n mvdd 
+    51500n mvdd 
+    51501n mvdd 
+    52000n mvdd 
+    52001n mvdd 
+    52300n mvdd 
+    52301n mvdd 
+    52800n mvdd 
+    52801n mvdd 
+    53100n mvdd 
+    53101n mvdd 
+    53600n mvdd 
+    53601n mvdd 
+    53900n mvdd 
+    53901n mvdd 
+    54400n mvdd 
+    54401n mvdd 
+    54700n mvdd 
+    54701n 0 
+    55200n 0 
+    55201n mvdd 
+    55500n mvdd 
+    55501n 0 
+    56000n 0 
+    56001n mvdd 
+    56300n mvdd 
+    56301n 0 
+    56800n 0 
+    56801n mvdd 
+    57100n mvdd 
+    57101n mvdd 
+    57600n mvdd 
+    57601n mvdd 
+    57900n mvdd 
+    57901n 0 
+    58400n 0 
+    58401n mvdd 
+    58700n mvdd 
+    58701n mvdd 
+    59200n mvdd 
+    59201n mvdd 
+    59500n mvdd 
+    59501n mvdd 
+    60000n mvdd 
+    60001n mvdd 
+    60300n mvdd 
+    60301n mvdd 
+    60800n mvdd 
+    60801n mvdd 
+    61100n mvdd 
+    61101n mvdd 
+    61600n mvdd 
+    61601n mvdd 
+    61900n mvdd 
+    61901n mvdd 
+    62400n mvdd 
+    62401n mvdd 
+    62700n mvdd 
+    62701n mvdd 
+    63200n mvdd 
+    63201n mvdd 
+    63500n mvdd 
+    63501n mvdd 
+    64000n mvdd 
+    64001n mvdd 
+    64300n mvdd 
+    64301n 0 
+    64800n 0 
+    64801n mvdd 
+    65100n mvdd 
+    65101n 0 
+    65600n 0 
+    65601n mvdd 
+    65900n mvdd 
+    65901n mvdd 
+    66400n mvdd 
+    66401n mvdd 
+    66700n mvdd 
+    66701n mvdd 
+    67200n mvdd 
+    67201n mvdd 
+    67500n mvdd 
+    67501n mvdd 
+    68000n mvdd 
+    68001n mvdd 
+    68300n mvdd 
+    68301n 0 
+    68800n 0 
+    68801n mvdd 
+    69100n mvdd 
+    69101n mvdd 
+    69600n mvdd 
+    69601n mvdd 
+    69900n mvdd 
+    69901n 0 
+    70400n 0 
+    70401n mvdd 
+    70700n mvdd 
+    70701n mvdd 
+    71200n mvdd 
+    71201n mvdd 
+    71500n mvdd 
+    71501n 0 
+    72000n 0 
+    72001n mvdd 
+    72300n mvdd 
+    72301n mvdd 
+    72800n mvdd 
+    72801n mvdd 
+    73100n mvdd 
+    73101n mvdd 
+    73600n mvdd 
+    73601n mvdd 
+    73900n mvdd 
+    73901n mvdd 
+    74400n mvdd 
+    74401n mvdd 
+    74700n mvdd 
+    74701n 0 
+    75200n 0 
+    75201n mvdd 
+    75500n mvdd 
+    75501n mvdd 
+    76000n mvdd 
+    76001n mvdd 
+    76300n mvdd 
+    76301n mvdd 
+    76800n mvdd 
+    76801n mvdd 
+    77100n mvdd 
+    77101n mvdd 
+    77600n mvdd 
+    77601n mvdd 
+    77900n mvdd 
+    77901n mvdd 
+    78400n mvdd 
+    78401n mvdd 
+    78700n mvdd 
+    78701n 0 
+    79200n 0 
+    79201n mvdd 
+    79500n mvdd 
+    79501n mvdd 
+    80000n mvdd 
+    80001n mvdd 
+    80300n mvdd 
+    80301n 0 
+    80800n 0 
+    80801n mvdd 
+    81100n mvdd 
+    81101n mvdd 
+    81600n mvdd 
+    81601n mvdd 
+    81900n mvdd 
+    81901n mvdd 
+    82400n mvdd 
+    82401n mvdd 
+    82700n mvdd 
+    82701n mvdd 
+    83200n mvdd 
+    83201n mvdd 
+    83500n mvdd 
+    83501n mvdd 
+    84000n mvdd 
+    84001n mvdd 
+    84300n mvdd 
+    84301n mvdd 
+    84800n mvdd 
+    84801n mvdd 
+    85100n mvdd 
+    85101n 0 
+    85600n 0 
+    85601n mvdd 
+    85900n mvdd 
+    85901n mvdd 
+    86400n mvdd 
+    86401n mvdd 
+    86700n mvdd 
+    86701n 0 
+    87200n 0 
+    87201n mvdd 
+    87500n mvdd 
+    87501n 0 
+    88000n 0 
+    88001n mvdd 
+    88300n mvdd 
+    88301n 0 
+    88800n 0 
+    88801n mvdd 
+    89100n mvdd 
+    89101n mvdd 
+    89600n mvdd 
+    89601n mvdd 
+    89900n mvdd 
+    89901n mvdd 
+    90400n mvdd 
+    90401n mvdd 
+    90700n mvdd 
+    90701n 0 
+    91200n 0 
+    91201n mvdd 
+    91500n mvdd 
+    91501n mvdd 
+    92000n mvdd 
+    92001n mvdd 
+    92300n mvdd 
+    92301n 0 
+    92800n 0 
+    92801n mvdd 
+    93100n mvdd 
+    93101n mvdd 
+    93600n mvdd 
+    93601n mvdd 
+    93900n mvdd 
+    93901n 0 
+    94400n 0 
+    94401n mvdd 
+    94700n mvdd 
+    94701n mvdd 
+    95200n mvdd 
+    95201n mvdd 
+    95500n mvdd 
+    95501n 0 
+    96000n 0 
+    96001n mvdd 
+    96300n mvdd 
+    96301n 0 
+    96800n 0 
+    96801n mvdd 
+    97100n mvdd 
+    97101n mvdd 
+    97600n mvdd 
+    97601n mvdd 
+    97900n mvdd 
+    97901n mvdd 
+    98400n mvdd 
+    98401n mvdd 
+    98700n mvdd 
+    98701n mvdd 
+    99200n mvdd 
+    99201n mvdd 
+    99500n mvdd 
+    99501n 0 
+    100000n 0 
+    100001n mvdd 
+    100300n mvdd 
+    100301n 0 
+    100800n 0 
+    100801n mvdd 
+    101100n mvdd 
+    101101n mvdd 
+    101600n mvdd 
+    101601n mvdd 
+    101900n mvdd 
+    101901n mvdd 
+    102400n mvdd 
+    102401n mvdd 
+    102700n mvdd 
+    102701n mvdd 
+    103200n mvdd 
+    103201n mvdd 
+    103500n mvdd 
+    103501n mvdd 
+    104000n mvdd 
+    104001n mvdd 
+    104300n mvdd 
+    104301n mvdd 
+    104800n mvdd 
+    104801n mvdd 
+    105100n mvdd 